
*** ChampSim Multicore Out-of-Order Simulator ***

Warmup Instructions: 16000000
Simulation Instructions: 16000000
Number of CPUs: 1
LLC sets: 2048
LLC ways: 16
Off-chip DRAM Size: 4096 MB Channels: 1 Width: 64-bit Data Rate: 6400 MT/s
CPU 0 runs tracer/pull_u16_k3.xz
.xz
BTB has LRU replacement policy
ITLB has LRU replacement policy
DTLB has LRU replacement policy
STLB has LRU replacement policy
L1I has LRU replacement policy
L1D has LRU replacement policy
L2C has LRU replacement policy
LLC has LRU replacement policy
Heartbeat CPU 0 instructions: 1000000 cycles: 348622 heartbeat IPC: 2.86844 cumulative IPC: 2.86844 (Simulation time: 0 hr 0 min 4 sec) 
PIN_registerGraphs(random_u16_k3.sg,1)
Graphh Number of Nodes: 65536
Heartbeat CPU 0 instructions: 2000000 cycles: 688190 heartbeat IPC: 2.94492 cumulative IPC: 2.90617 (Simulation time: 0 hr 0 min 6 sec) 
PIN_updateRegBaseBound( 94080245625040, 94080245887184)
updateCurrDst(1)
updateCurrDst(62)
updateCurrDst(75)
updateCurrDst(207)
updateCurrDst(348)
updateCurrDst(573)
updateCurrDst(619)
updateCurrDst(629)
updateCurrDst(653)
updateCurrDst(692)
updateCurrDst(853)
updateCurrDst(879)
updateCurrDst(913)
updateCurrDst(945)
Heartbeat CPU 0 instructions: 3000001 cycles: 1013246 heartbeat IPC: 3.0764 cumulative IPC: 2.96078 (Simulation time: 0 hr 0 min 9 sec) 
updateCurrDst(1251)
updateCurrDst(1270)
updateCurrDst(1348)
updateCurrDst(1375)
updateCurrDst(1411)
updateCurrDst(1433)
updateCurrDst(1525)
updateCurrDst(1593)
updateCurrDst(1637)
updateCurrDst(1676)
updateCurrDst(1781)
updateCurrDst(1980)
updateCurrDst(1997)
updateCurrDst(2165)
updateCurrDst(2281)
updateCurrDst(2430)
updateCurrDst(2472)
updateCurrDst(2889)
updateCurrDst(2902)
updateCurrDst(2951)
Heartbeat CPU 0 instructions: 4000001 cycles: 1331026 heartbeat IPC: 3.14683 cumulative IPC: 3.0052 (Simulation time: 0 hr 0 min 13 sec) 
updateCurrDst(3298)
updateCurrDst(3300)
updateCurrDst(3475)
updateCurrDst(3492)
updateCurrDst(3674)
updateCurrDst(3705)
updateCurrDst(3734)
updateCurrDst(3772)
updateCurrDst(3785)
updateCurrDst(3794)
updateCurrDst(3884)
updateCurrDst(3920)
updateCurrDst(4044)
updateCurrDst(4089)
updateCurrDst(4291)
updateCurrDst(4292)
updateCurrDst(4654)
updateCurrDst(4728)
updateCurrDst(4956)
updateCurrDst(5068)
updateCurrDst(5131)
Heartbeat CPU 0 instructions: 5000003 cycles: 1648340 heartbeat IPC: 3.15146 cumulative IPC: 3.03336 (Simulation time: 0 hr 0 min 17 sec) 
updateCurrDst(5540)
updateCurrDst(5592)
updateCurrDst(5614)
updateCurrDst(5692)
updateCurrDst(5803)
updateCurrDst(5821)
updateCurrDst(5880)
updateCurrDst(5916)
updateCurrDst(6067)
updateCurrDst(6092)
updateCurrDst(6098)
updateCurrDst(6206)
updateCurrDst(6230)
updateCurrDst(6281)
updateCurrDst(6295)
updateCurrDst(6306)
updateCurrDst(6354)
updateCurrDst(6390)
updateCurrDst(6433)
updateCurrDst(6487)
updateCurrDst(6563)
updateCurrDst(6683)
updateCurrDst(6708)
updateCurrDst(6751)
updateCurrDst(6852)
updateCurrDst(6897)
updateCurrDst(6936)
updateCurrDst(7016)
updateCurrDst(7041)
updateCurrDst(7053)
updateCurrDst(7189)
updateCurrDst(7328)
Heartbeat CPU 0 instructions: 6000002 cycles: 1965745 heartbeat IPC: 3.15055 cumulative IPC: 3.05228 (Simulation time: 0 hr 0 min 21 sec) 
updateCurrDst(7530)
updateCurrDst(7591)
updateCurrDst(7597)
updateCurrDst(7636)
updateCurrDst(7651)
updateCurrDst(7718)
updateCurrDst(7759)
updateCurrDst(7854)
updateCurrDst(8009)
updateCurrDst(8062)
updateCurrDst(8120)
updateCurrDst(8156)
updateCurrDst(8428)
updateCurrDst(8438)
updateCurrDst(8456)
updateCurrDst(8554)
updateCurrDst(8647)
updateCurrDst(8993)
updateCurrDst(9150)
updateCurrDst(9177)
updateCurrDst(9368)
Heartbeat CPU 0 instructions: 7000003 cycles: 2282774 heartbeat IPC: 3.15429 cumulative IPC: 3.06645 (Simulation time: 0 hr 0 min 25 sec) 
updateCurrDst(9446)
updateCurrDst(9564)
updateCurrDst(9598)
updateCurrDst(9844)
updateCurrDst(9965)
updateCurrDst(10032)
updateCurrDst(10171)
updateCurrDst(10357)
updateCurrDst(10421)
updateCurrDst(10468)
updateCurrDst(10627)
updateCurrDst(10635)
updateCurrDst(10672)
updateCurrDst(10806)
updateCurrDst(10894)
updateCurrDst(10909)
updateCurrDst(11133)
updateCurrDst(11333)
updateCurrDst(11410)
updateCurrDst(11421)
updateCurrDst(11429)
updateCurrDst(11461)
Heartbeat CPU 0 instructions: 8000002 cycles: 2600209 heartbeat IPC: 3.15025 cumulative IPC: 3.07668 (Simulation time: 0 hr 0 min 28 sec) 
updateCurrDst(11526)
updateCurrDst(11769)
updateCurrDst(12101)
updateCurrDst(12331)
updateCurrDst(12722)
updateCurrDst(12744)
updateCurrDst(12779)
updateCurrDst(12790)
updateCurrDst(13023)
updateCurrDst(13158)
updateCurrDst(13196)
updateCurrDst(13450)
updateCurrDst(13582)
Heartbeat CPU 0 instructions: 9000002 cycles: 2917876 heartbeat IPC: 3.14795 cumulative IPC: 3.08444 (Simulation time: 0 hr 0 min 32 sec) 
updateCurrDst(13864)
updateCurrDst(13981)
updateCurrDst(14149)
updateCurrDst(14214)
updateCurrDst(14238)
updateCurrDst(14271)
updateCurrDst(14353)
updateCurrDst(14514)
updateCurrDst(14559)
updateCurrDst(14570)
updateCurrDst(14696)
updateCurrDst(14753)
updateCurrDst(14846)
updateCurrDst(15015)
updateCurrDst(15212)
updateCurrDst(15231)
updateCurrDst(15267)
updateCurrDst(15273)
updateCurrDst(15293)
updateCurrDst(15310)
updateCurrDst(15315)
updateCurrDst(15379)
updateCurrDst(15524)
updateCurrDst(15564)
updateCurrDst(15669)
Heartbeat CPU 0 instructions: 10000001 cycles: 3235202 heartbeat IPC: 3.15133 cumulative IPC: 3.091 (Simulation time: 0 hr 0 min 36 sec) 
updateCurrDst(15720)
updateCurrDst(15773)
updateCurrDst(15781)
updateCurrDst(15807)
updateCurrDst(15993)
updateCurrDst(16061)
updateCurrDst(16168)
updateCurrDst(16208)
updateCurrDst(16412)
updateCurrDst(16434)
updateCurrDst(16446)
updateCurrDst(16568)
updateCurrDst(16612)
updateCurrDst(16691)
updateCurrDst(16700)
updateCurrDst(16855)
updateCurrDst(16873)
updateCurrDst(16911)
updateCurrDst(16950)
updateCurrDst(17030)
updateCurrDst(17229)
updateCurrDst(17458)
updateCurrDst(17659)
updateCurrDst(17698)
Heartbeat CPU 0 instructions: 11000000 cycles: 3552597 heartbeat IPC: 3.15065 cumulative IPC: 3.09633 (Simulation time: 0 hr 0 min 40 sec) 
updateCurrDst(17834)
updateCurrDst(17875)
updateCurrDst(17906)
updateCurrDst(17925)
updateCurrDst(17945)
updateCurrDst(17994)
updateCurrDst(18061)
updateCurrDst(18398)
updateCurrDst(18431)
updateCurrDst(18492)
updateCurrDst(18494)
updateCurrDst(18532)
updateCurrDst(18590)
updateCurrDst(18616)
updateCurrDst(18864)
updateCurrDst(19009)
updateCurrDst(19051)
updateCurrDst(19183)
updateCurrDst(19209)
updateCurrDst(19289)
updateCurrDst(19437)
updateCurrDst(19439)
updateCurrDst(19643)
updateCurrDst(19676)
updateCurrDst(19698)
updateCurrDst(19727)
updateCurrDst(19765)
Heartbeat CPU 0 instructions: 12000002 cycles: 3869937 heartbeat IPC: 3.1512 cumulative IPC: 3.10083 (Simulation time: 0 hr 0 min 44 sec) 
updateCurrDst(20022)
updateCurrDst(20078)
updateCurrDst(20118)
updateCurrDst(20136)
updateCurrDst(20196)
updateCurrDst(20230)
updateCurrDst(20255)
updateCurrDst(20601)
updateCurrDst(20694)
updateCurrDst(20743)
updateCurrDst(20859)
updateCurrDst(20883)
updateCurrDst(21069)
updateCurrDst(21095)
updateCurrDst(21161)
updateCurrDst(21179)
updateCurrDst(21306)
updateCurrDst(21400)
updateCurrDst(21485)
updateCurrDst(21572)
updateCurrDst(21781)
updateCurrDst(21793)
Heartbeat CPU 0 instructions: 13000002 cycles: 4187674 heartbeat IPC: 3.14726 cumulative IPC: 3.10435 (Simulation time: 0 hr 0 min 47 sec) 
updateCurrDst(21970)
updateCurrDst(22148)
updateCurrDst(22387)
updateCurrDst(22458)
updateCurrDst(22545)
updateCurrDst(22570)
updateCurrDst(22680)
updateCurrDst(22825)
updateCurrDst(22832)
updateCurrDst(23029)
updateCurrDst(23163)
updateCurrDst(23231)
updateCurrDst(23334)
updateCurrDst(23376)
updateCurrDst(23412)
updateCurrDst(23532)
updateCurrDst(23651)
updateCurrDst(23791)
updateCurrDst(23936)
updateCurrDst(23938)
Heartbeat CPU 0 instructions: 14000003 cycles: 4505249 heartbeat IPC: 3.14887 cumulative IPC: 3.10749 (Simulation time: 0 hr 0 min 51 sec) 
updateCurrDst(24034)
updateCurrDst(24505)
updateCurrDst(24882)
updateCurrDst(24887)
updateCurrDst(24945)
updateCurrDst(24964)
updateCurrDst(25023)
updateCurrDst(25065)
updateCurrDst(25111)
updateCurrDst(25260)
updateCurrDst(25408)
updateCurrDst(25496)
updateCurrDst(25506)
updateCurrDst(25514)
updateCurrDst(25545)
updateCurrDst(25638)
updateCurrDst(25686)
updateCurrDst(25743)
updateCurrDst(25759)
updateCurrDst(25825)
updateCurrDst(25930)
updateCurrDst(26075)
updateCurrDst(26078)
Heartbeat CPU 0 instructions: 15000000 cycles: 4823030 heartbeat IPC: 3.14681 cumulative IPC: 3.11008 (Simulation time: 0 hr 0 min 55 sec) 
updateCurrDst(26226)
updateCurrDst(26265)
updateCurrDst(26360)
updateCurrDst(26498)
updateCurrDst(26586)
updateCurrDst(26615)
updateCurrDst(26747)
updateCurrDst(26751)
updateCurrDst(26784)
updateCurrDst(26854)
updateCurrDst(26942)
updateCurrDst(27001)
updateCurrDst(27018)
updateCurrDst(27087)
updateCurrDst(27287)
updateCurrDst(27454)
updateCurrDst(27693)
updateCurrDst(27996)
updateCurrDst(28075)
Heartbeat CPU 0 instructions: 16000001 cycles: 5140515 heartbeat IPC: 3.14976 cumulative IPC: 3.11253 (Simulation time: 0 hr 0 min 58 sec) 

Warmup complete CPU 0 instructions: 16000001 cycles: 5140515 (Simulation time: 0 hr 0 min 58 sec) 

updateCurrDst(28279)
updateCurrDst(28286)
updateCurrDst(28301)
updateCurrDst(28313)
updateCurrDst(28342)
updateCurrDst(28437)
updateCurrDst(28463)
updateCurrDst(28505)
updateCurrDst(28650)
updateCurrDst(28684)
updateCurrDst(29010)
updateCurrDst(29055)
updateCurrDst(29153)
updateCurrDst(29226)
updateCurrDst(29574)
updateCurrDst(29611)
updateCurrDst(29840)
updateCurrDst(29970)
updateCurrDst(30014)
updateCurrDst(30163)
updateCurrDst(30219)
Heartbeat CPU 0 instructions: 17000000 cycles: 8091395 heartbeat IPC: 0.338882 cumulative IPC: 0.338882 (Simulation time: 0 hr 1 min 3 sec) 
updateCurrDst(30387)
updateCurrDst(30427)
updateCurrDst(30498)
updateCurrDst(30584)
updateCurrDst(30610)
updateCurrDst(30651)
updateCurrDst(30711)
updateCurrDst(30748)
updateCurrDst(30783)
updateCurrDst(30818)
updateCurrDst(30825)
updateCurrDst(30917)
updateCurrDst(30934)
updateCurrDst(30970)
updateCurrDst(31116)
updateCurrDst(31270)
updateCurrDst(31344)
updateCurrDst(31347)
updateCurrDst(31361)
updateCurrDst(31604)
updateCurrDst(31641)
updateCurrDst(31678)
updateCurrDst(31713)
updateCurrDst(31715)
updateCurrDst(31723)
updateCurrDst(31736)
updateCurrDst(31796)
updateCurrDst(31864)
updateCurrDst(31925)
updateCurrDst(31945)
updateCurrDst(32001)
updateCurrDst(32176)
updateCurrDst(32180)
updateCurrDst(32181)
Heartbeat CPU 0 instructions: 18000000 cycles: 11083573 heartbeat IPC: 0.334205 cumulative IPC: 0.336527 (Simulation time: 0 hr 1 min 7 sec) 
updateCurrDst(32375)
updateCurrDst(32528)
updateCurrDst(32590)
updateCurrDst(32745)
updateCurrDst(32930)
updateCurrDst(33466)
updateCurrDst(33486)
updateCurrDst(33506)
updateCurrDst(33516)
updateCurrDst(33584)
updateCurrDst(34030)
updateCurrDst(34165)
updateCurrDst(34371)
updateCurrDst(34397)
Heartbeat CPU 0 instructions: 19000000 cycles: 14074736 heartbeat IPC: 0.334318 cumulative IPC: 0.335787 (Simulation time: 0 hr 1 min 11 sec) 
updateCurrDst(34591)
updateCurrDst(34843)
updateCurrDst(35011)
updateCurrDst(35174)
updateCurrDst(35182)
updateCurrDst(35308)
updateCurrDst(35391)
updateCurrDst(35468)
updateCurrDst(35560)
updateCurrDst(35582)
updateCurrDst(35587)
updateCurrDst(35628)
updateCurrDst(35701)
updateCurrDst(35719)
updateCurrDst(35854)
updateCurrDst(35879)
updateCurrDst(36008)
updateCurrDst(36052)
updateCurrDst(36180)
updateCurrDst(36305)
updateCurrDst(36307)
updateCurrDst(36353)
updateCurrDst(36423)
updateCurrDst(36442)
Heartbeat CPU 0 instructions: 20000003 cycles: 17089724 heartbeat IPC: 0.331677 cumulative IPC: 0.33475 (Simulation time: 0 hr 1 min 15 sec) 
updateCurrDst(36490)
updateCurrDst(36658)
updateCurrDst(36764)
updateCurrDst(36815)
updateCurrDst(36836)
updateCurrDst(36927)
updateCurrDst(36941)
updateCurrDst(37122)
updateCurrDst(37254)
updateCurrDst(37274)
updateCurrDst(37326)
updateCurrDst(37891)
updateCurrDst(37911)
updateCurrDst(38149)
updateCurrDst(38203)
updateCurrDst(38364)
updateCurrDst(38368)
updateCurrDst(38486)
updateCurrDst(38532)
Heartbeat CPU 0 instructions: 21000003 cycles: 20110172 heartbeat IPC: 0.331077 cumulative IPC: 0.334009 (Simulation time: 0 hr 1 min 19 sec) 
updateCurrDst(38582)
updateCurrDst(38604)
updateCurrDst(38615)
updateCurrDst(38862)
updateCurrDst(39326)
updateCurrDst(39425)
updateCurrDst(39794)
updateCurrDst(39911)
updateCurrDst(39952)
updateCurrDst(39961)
updateCurrDst(40286)
updateCurrDst(40405)
Heartbeat CPU 0 instructions: 22000000 cycles: 23133987 heartbeat IPC: 0.330707 cumulative IPC: 0.333454 (Simulation time: 0 hr 1 min 23 sec) 
updateCurrDst(40763)
updateCurrDst(40769)
updateCurrDst(40782)
updateCurrDst(40833)
updateCurrDst(40878)
updateCurrDst(40977)
updateCurrDst(41052)
updateCurrDst(41145)
updateCurrDst(41212)
updateCurrDst(41349)
updateCurrDst(41694)
updateCurrDst(41719)
updateCurrDst(41809)
updateCurrDst(41885)
updateCurrDst(41904)
updateCurrDst(42109)
updateCurrDst(42196)
updateCurrDst(42394)
updateCurrDst(42545)
updateCurrDst(42598)
updateCurrDst(42727)
Heartbeat CPU 0 instructions: 23000002 cycles: 26159413 heartbeat IPC: 0.330533 cumulative IPC: 0.333034 (Simulation time: 0 hr 1 min 27 sec) 
updateCurrDst(42998)
updateCurrDst(43110)
updateCurrDst(43129)
updateCurrDst(43202)
updateCurrDst(43227)
updateCurrDst(43254)
updateCurrDst(43321)
updateCurrDst(43382)
updateCurrDst(43426)
updateCurrDst(43471)
updateCurrDst(43499)
updateCurrDst(43574)
updateCurrDst(43727)
updateCurrDst(43795)
updateCurrDst(43890)
updateCurrDst(44074)
updateCurrDst(44080)
updateCurrDst(44082)
updateCurrDst(44084)
updateCurrDst(44179)
updateCurrDst(44314)
updateCurrDst(44389)
updateCurrDst(44407)
updateCurrDst(44758)
Heartbeat CPU 0 instructions: 24000001 cycles: 29168952 heartbeat IPC: 0.332276 cumulative IPC: 0.332939 (Simulation time: 0 hr 1 min 31 sec) 
updateCurrDst(44866)
updateCurrDst(45022)
updateCurrDst(45121)
updateCurrDst(45241)
updateCurrDst(45338)
updateCurrDst(45381)
updateCurrDst(45434)
updateCurrDst(45526)
updateCurrDst(45571)
updateCurrDst(45583)
updateCurrDst(45712)
updateCurrDst(45752)
updateCurrDst(45768)
updateCurrDst(45869)
updateCurrDst(45911)
updateCurrDst(45991)
updateCurrDst(46255)
updateCurrDst(46268)
updateCurrDst(46408)
updateCurrDst(46425)
updateCurrDst(46516)
updateCurrDst(46748)
updateCurrDst(46821)
Heartbeat CPU 0 instructions: 25000000 cycles: 32172266 heartbeat IPC: 0.332965 cumulative IPC: 0.332942 (Simulation time: 0 hr 1 min 36 sec) 
updateCurrDst(47137)
updateCurrDst(47174)
updateCurrDst(47291)
updateCurrDst(47355)
updateCurrDst(47358)
updateCurrDst(47382)
updateCurrDst(47690)
updateCurrDst(47810)
updateCurrDst(47928)
updateCurrDst(48058)
updateCurrDst(48089)
updateCurrDst(48103)
updateCurrDst(48159)
updateCurrDst(48404)
updateCurrDst(48480)
updateCurrDst(48502)
updateCurrDst(48601)
updateCurrDst(48747)
updateCurrDst(48775)
updateCurrDst(48890)
updateCurrDst(48929)
Heartbeat CPU 0 instructions: 26000003 cycles: 35177183 heartbeat IPC: 0.332789 cumulative IPC: 0.332926 (Simulation time: 0 hr 1 min 40 sec) 
updateCurrDst(49128)
updateCurrDst(49186)
updateCurrDst(49231)
updateCurrDst(49244)
updateCurrDst(49247)
updateCurrDst(49361)
updateCurrDst(49410)
updateCurrDst(49461)
updateCurrDst(49587)
updateCurrDst(49699)
updateCurrDst(49740)
updateCurrDst(49835)
updateCurrDst(49996)
updateCurrDst(50367)
updateCurrDst(50567)
updateCurrDst(50617)
updateCurrDst(50646)
updateCurrDst(50794)
updateCurrDst(50804)
updateCurrDst(50856)
updateCurrDst(51036)
Heartbeat CPU 0 instructions: 27000000 cycles: 38185921 heartbeat IPC: 0.332364 cumulative IPC: 0.332875 (Simulation time: 0 hr 1 min 44 sec) 
updateCurrDst(51209)
updateCurrDst(51331)
updateCurrDst(51376)
updateCurrDst(51514)
updateCurrDst(51568)
updateCurrDst(51722)
updateCurrDst(51768)
updateCurrDst(51849)
updateCurrDst(51963)
updateCurrDst(51968)
updateCurrDst(52410)
updateCurrDst(52467)
updateCurrDst(52523)
updateCurrDst(52714)
updateCurrDst(52719)
updateCurrDst(52754)
updateCurrDst(52830)
updateCurrDst(52892)
updateCurrDst(52903)
updateCurrDst(52906)
updateCurrDst(53059)
updateCurrDst(53091)
updateCurrDst(53148)
updateCurrDst(53152)
Heartbeat CPU 0 instructions: 28000000 cycles: 41213405 heartbeat IPC: 0.330307 cumulative IPC: 0.33266 (Simulation time: 0 hr 1 min 48 sec) 
updateCurrDst(53294)
updateCurrDst(53313)
updateCurrDst(53340)
updateCurrDst(53387)
updateCurrDst(53509)
updateCurrDst(53616)
updateCurrDst(53650)
updateCurrDst(53733)
updateCurrDst(53871)
updateCurrDst(54058)
updateCurrDst(54388)
updateCurrDst(54456)
updateCurrDst(54676)
updateCurrDst(54770)
updateCurrDst(54806)
updateCurrDst(55016)
updateCurrDst(55125)
Heartbeat CPU 0 instructions: 29000003 cycles: 44232171 heartbeat IPC: 0.331262 cumulative IPC: 0.332552 (Simulation time: 0 hr 1 min 52 sec) 
updateCurrDst(55413)
updateCurrDst(55430)
updateCurrDst(55447)
updateCurrDst(55460)
updateCurrDst(55470)
updateCurrDst(55496)
updateCurrDst(55526)
updateCurrDst(55603)
updateCurrDst(55615)
updateCurrDst(55674)
updateCurrDst(55691)
updateCurrDst(55732)
updateCurrDst(55844)
updateCurrDst(55863)
updateCurrDst(56032)
updateCurrDst(56227)
updateCurrDst(56228)
updateCurrDst(56241)
updateCurrDst(56281)
updateCurrDst(56651)
updateCurrDst(56662)
updateCurrDst(56785)
updateCurrDst(56859)
updateCurrDst(56892)
updateCurrDst(57039)
updateCurrDst(57105)
updateCurrDst(57151)
updateCurrDst(57239)
Heartbeat CPU 0 instructions: 30000001 cycles: 47251905 heartbeat IPC: 0.331154 cumulative IPC: 0.332452 (Simulation time: 0 hr 1 min 56 sec) 
updateCurrDst(57483)
updateCurrDst(57504)
updateCurrDst(57569)
updateCurrDst(57664)
updateCurrDst(57791)
updateCurrDst(57858)
updateCurrDst(57982)
updateCurrDst(58111)
updateCurrDst(58331)
updateCurrDst(58355)
updateCurrDst(58433)
updateCurrDst(58476)
updateCurrDst(58515)
updateCurrDst(58538)
updateCurrDst(58762)
updateCurrDst(58776)
updateCurrDst(58841)
updateCurrDst(58895)
updateCurrDst(59180)
updateCurrDst(59360)
Heartbeat CPU 0 instructions: 31000001 cycles: 50264554 heartbeat IPC: 0.331934 cumulative IPC: 0.332417 (Simulation time: 0 hr 2 min 0 sec) 
updateCurrDst(59424)
updateCurrDst(59428)
updateCurrDst(59493)
updateCurrDst(59663)
updateCurrDst(59717)
updateCurrDst(59964)
updateCurrDst(59980)
updateCurrDst(60172)
updateCurrDst(60463)
updateCurrDst(60495)
updateCurrDst(60599)
updateCurrDst(60607)
updateCurrDst(60819)
updateCurrDst(61087)
updateCurrDst(61195)
updateCurrDst(61369)
updateCurrDst(61405)
*** Reached end of trace for Core: 0 Repeating trace: tracer/pull_u16_k3.xzafter: 32000000
Heartbeat CPU 0 instructions: 32000002 cycles: 53291281 heartbeat IPC: 0.33039 cumulative IPC: 0.33229 (Simulation time: 0 hr 2 min 4 sec) 
Finished CPU 0 instructions: 16000001 cycles: 48150766 cumulative IPC: 0.33229 (Simulation time: 0 hr 2 min 4 sec) 

ChampSim completed all CPUs

Region of Interest Statistics

CPU 0 cumulative IPC: 0.33229 instructions: 16000001 cycles: 48150766

Total ROB STALLS:                    6364263
STLB MISS ROB STALLS:                    194
L1D  LOAD MISS ROB STALLS:            184720  Translation MISS ROB STALLS:             0
L2C  LOAD MISS ROB STALLS:             18744  Translation MISS ROB STALLS:             0
LLC  LOAD MISS ROB STALLS:             16484  Translation MISS ROB STALLS:             0

ITLB TOTAL     ACCESS:           2163753  HIT:    2163753  MISS:          0  HIT %:        100  MISS %:          0   MPKI: 0
ITLB LOAD TRANSLATION ACCESS:    2163753  HIT:    2163753  MISS:          0  HIT %:        100  MISS %:          0   MPKI: 0
ITLB AVERAGE MISS LATENCY:          -nan cycles
ITLB RQ ACCESS:     2361498	FORWARD:           0	MERGED:       197746	TO_CACHE:    2163752

DTLB TOTAL     ACCESS:           4716148  HIT:    4699389  MISS:      16759  HIT %:    99.6446  MISS %:   0.355354   MPKI: 1.04744
DTLB LOAD TRANSLATION ACCESS:    4716148  HIT:    4699389  MISS:      16759  HIT %:    99.6446  MISS %:   0.355354   MPKI: 1.04744
DTLB AVERAGE MISS LATENCY:       11.9051 cycles
DTLB RQ ACCESS:     6486205	FORWARD:           0	MERGED:      1770057	TO_CACHE:    4716148

STLB TOTAL     ACCESS:             16758  HIT:      16564  MISS:        194  HIT %:    98.8423  MISS %:    1.15766   MPKI: 0.012125
STLB LOAD TRANSLATION ACCESS:      16758  HIT:      16564  MISS:        194  HIT %:    98.8423  MISS %:    1.15766   MPKI: 0.012125
STLB AVERAGE MISS LATENCY:           251 cycles
STLB RQ ACCESS:       16758	FORWARD:           0	MERGED:            0	TO_CACHE:      16758

PSCL5 TOTAL     ACCESS:               194  HIT:        194  MISS:          0  HIT %:        100  MISS %:          0   MPKI: 0
PSCL5 LOAD TRANSLATION ACCESS:        194  HIT:        194  MISS:          0  HIT %:        100  MISS %:          0   MPKI: 0

PSCL4 TOTAL     ACCESS:               194  HIT:        194  MISS:          0  HIT %:        100  MISS %:          0   MPKI: 0
PSCL4 LOAD TRANSLATION ACCESS:        194  HIT:        194  MISS:          0  HIT %:        100  MISS %:          0   MPKI: 0

PSCL3 TOTAL     ACCESS:               194  HIT:        194  MISS:          0  HIT %:        100  MISS %:          0   MPKI: 0
PSCL3 LOAD TRANSLATION ACCESS:        194  HIT:        194  MISS:          0  HIT %:        100  MISS %:          0   MPKI: 0

PSCL2 TOTAL     ACCESS:               194  HIT:        194  MISS:          0  HIT %:        100  MISS %:          0   MPKI: 0
PSCL2 LOAD TRANSLATION ACCESS:        194  HIT:        194  MISS:          0  HIT %:        100  MISS %:          0   MPKI: 0

L1D TOTAL     ACCESS:           6486205  HIT:    6301486  MISS:     184719  HIT %:    97.1521  MISS %:    2.84787   MPKI: 11.5449  USED:      46713  UNUSED:     138006
L1D LOAD      ACCESS:           2797213  HIT:    2612494  MISS:     184719  HIT %:    93.3963  MISS %:    6.60368   MPKI: 11.5449  USED:      46713  UNUSED:     138006
L1D RFO       ACCESS:           3688992  HIT:    3688992  MISS:          0  HIT %:        100  MISS %:          0   MPKI: 0
L1D PTL1 TRANSLATION ACCESS:          0  HIT:          0  MISS:          0  HIT %:       -nan  MISS %:       -nan   MPKI: 0
L1D PTL2 TRANSLATION ACCESS:          0  HIT:          0  MISS:          0  HIT %:       -nan  MISS %:       -nan   MPKI: 0
L1D PTL3 TRANSLATION ACCESS:          0  HIT:          0  MISS:          0  HIT %:       -nan  MISS %:       -nan   MPKI: 0
L1D PTL4 TRANSLATION ACCESS:          0  HIT:          0  MISS:          0  HIT %:       -nan  MISS %:       -nan   MPKI: 0
L1D PTL5 TRANSLATION ACCESS:          0  HIT:          0  MISS:          0  HIT %:       -nan  MISS %:       -nan   MPKI: 0
L1D TOTAL EVICTIONS:             184719  TRANSLATION EVICTIONS:          0  TRANSLATION EVICTING TRANSALTION:          0  TRANSLATION EVICTING LOAD:          0  LOAD EVICTING TRANSALTION:          0  LOAD EVICTING LOAD:      184719
L1D AVERAGE MISS LATENCY:       29.8321 cycles  AVERAGE LOAD MISS LATENCY:       29.8321 cycles  AVERAGE LOAD TRANSLATION MISS LATENCY:          -nan cycles
L1D RQ ACCESS:     4063432	FORWARD:           0	MERGED:       866196	TO_CACHE:    2797214
L1D WQ ACCESS:     3692303	FORWARD:      400022	MERGED:         3312	TO_CACHE:    3688991

L1I TOTAL     ACCESS:           2361499  HIT:    2361499  MISS:          0  HIT %:        100  MISS %:          0   MPKI: 0
L1I LOAD      ACCESS:           2361499  HIT:    2361499  MISS:          0  HIT %:        100  MISS %:          0   MPKI: 0
L1I AVERAGE MISS LATENCY:          -nan cycles
L1I RQ ACCESS:     3732383	FORWARD:           0	MERGED:      1370885	TO_CACHE:    2361498

L2C TOTAL     ACCESS:            186798  HIT:     168055  MISS:      18743  HIT %:    89.9662  MISS %:    10.0338   MPKI: 1.17144  USED:         33  UNUSED:      18710
L2C LOAD      ACCESS:            184719  HIT:     165976  MISS:      18743  HIT %:    89.8532  MISS %:    10.1468   MPKI: 1.17144  USED:         11  UNUSED:      18710
L2C WRITEBACK ACCESS:              2079  HIT:       2079  MISS:          0  HIT %:        100  MISS %:          0   MPKI: 0
L2C PTL1 TRANSLATION ACCESS:          0  HIT:          0  MISS:          0  HIT %:       -nan  MISS %:       -nan   MPKI: 0
L2C PTL2 TRANSLATION ACCESS:          0  HIT:          0  MISS:          0  HIT %:       -nan  MISS %:       -nan   MPKI: 0
L2C PTL3 TRANSLATION ACCESS:          0  HIT:          0  MISS:          0  HIT %:       -nan  MISS %:       -nan   MPKI: 0
L2C PTL4 TRANSLATION ACCESS:          0  HIT:          0  MISS:          0  HIT %:       -nan  MISS %:       -nan   MPKI: 0
L2C PTL5 TRANSLATION ACCESS:          0  HIT:          0  MISS:          0  HIT %:       -nan  MISS %:       -nan   MPKI: 0
L2C TOTAL EVICTIONS:              18743  TRANSLATION EVICTIONS:          0  TRANSLATION EVICTING TRANSALTION:          0  TRANSLATION EVICTING LOAD:          0  LOAD EVICTING TRANSALTION:          0  LOAD EVICTING LOAD:       18721
L2C AVERAGE MISS LATENCY:       146.176 cycles  AVERAGE LOAD MISS LATENCY:       146.176 cycles  AVERAGE LOAD TRANSLATION MISS LATENCY:          -nan cycles
L2C RQ ACCESS:      184720	FORWARD:           0	MERGED:            0	TO_CACHE:     184720
L2C WQ ACCESS:        2079	FORWARD:           0	MERGED:            0	TO_CACHE:       2079

LLC TOTAL     ACCESS:             20694  HIT:       4198  MISS:      16496  HIT %:    20.2861  MISS %:    79.7139   MPKI: 1.031  USED:       1060  UNUSED:      14628
LLC LOAD      ACCESS:             18743  HIT:       2259  MISS:      16484  HIT %:    12.0525  MISS %:    87.9475   MPKI: 1.03025  USED:          3  UNUSED:       8218
LLC WRITEBACK ACCESS:              1951  HIT:       1939  MISS:         12  HIT %:    99.3849  MISS %:   0.615069   MPKI: 0.00075
LLC PTL1 TRANSLATION ACCESS:          0  HIT:          0  MISS:          0  HIT %:       -nan  MISS %:       -nan   MPKI: 0
LLC PTL2 TRANSLATION ACCESS:          0  HIT:          0  MISS:          0  HIT %:       -nan  MISS %:       -nan   MPKI: 0
LLC PTL3 TRANSLATION ACCESS:          0  HIT:          0  MISS:          0  HIT %:       -nan  MISS %:       -nan   MPKI: 0
LLC PTL4 TRANSLATION ACCESS:          0  HIT:          0  MISS:          0  HIT %:       -nan  MISS %:       -nan   MPKI: 0
LLC PTL5 TRANSLATION ACCESS:          0  HIT:          0  MISS:          0  HIT %:       -nan  MISS %:       -nan   MPKI: 0
LLC TOTAL EVICTIONS:              15688  TRANSLATION EVICTIONS:          0  TRANSLATION EVICTING TRANSALTION:          0  TRANSLATION EVICTING LOAD:          0  LOAD EVICTING TRANSALTION:          0  LOAD EVICTING LOAD:        8214
LLC AVERAGE MISS LATENCY:           132 cycles  AVERAGE LOAD MISS LATENCY:       132.097 cycles  AVERAGE LOAD TRANSLATION MISS LATENCY:          -nan cycles
LLC RQ ACCESS:       18744	FORWARD:           0	MERGED:            0	TO_CACHE:      18744
LLC WQ ACCESS:        1951	FORWARD:           0	MERGED:            0	TO_CACHE:       1951


RAW hits: 2722491
Loads Generated: 6785923
Loads sent to L1D: 4063432
Stores Generated: 3692301
Stores sent to L1D: 3692303
Major fault: 0 Minor fault: 830
Allocated PAGES: 830
IRREG DATA L1D ACCESS: 368630
L2C ACCESSES: 306641
L2C MISSES: 1151

DRAM Statistics
 CHANNEL 0
 RQ ROW_BUFFER_HIT:       6248  ROW_BUFFER_MISS:      10430
 DBUS_CONGESTED:          0
 WQ ROW_BUFFER_HIT:          0  ROW_BUFFER_MISS:       5425  FULL:          0

 AVG_CONGESTED_CYCLE: -

CPU 0 Branch Prediction Accuracy: 98.3104% MPKI: 2.0725 Average ROB Occupancy at Mispredict: 16.1586
Branch types
NOT_BRANCH: 14037084 87.7318%
BRANCH_DIRECT_JUMP: 0 0%
BRANCH_INDIRECT: 232872 1.45545%
BRANCH_CONDITIONAL: 0 0%
BRANCH_DIRECT_CALL: 33254 0.207837%
BRANCH_INDIRECT_CALL: 665265 4.15791%
BRANCH_RETURN: 698519 4.36574%
BRANCH_OTHER: 332633 2.07896%

DRAM PAGES: 1048576
Allocated PAGES: 830
