
*** ChampSim Multicore Out-of-Order Simulator ***

Warmup Instructions: 16000000
Simulation Instructions: 16000000
Number of CPUs: 1
LLC sets: 2048
LLC ways: 16
Off-chip DRAM Size: 4096 MB Channels: 1 Width: 64-bit Data Rate: 6400 MT/s
CPU 0 runs tracer/pull_u16_k3.xz
.xz
BTB has LRU replacement policy
ITLB has LRU replacement policy
DTLB has LRU replacement policy
STLB has LRU replacement policy
L1I has LRU replacement policy
L1D has LRU replacement policy
L2C has LRU replacement policy
Initialize DRRIP state for LLC
Heartbeat CPU 0 instructions: 1000000 cycles: 348622 heartbeat IPC: 2.86844 cumulative IPC: 2.86844 (Simulation time: 0 hr 0 min 3 sec) 
PIN_registerGraphs(random_u16_k3.sg,1)
Graphh Number of Nodes: 65536
Heartbeat CPU 0 instructions: 2000000 cycles: 688190 heartbeat IPC: 2.94492 cumulative IPC: 2.90617 (Simulation time: 0 hr 0 min 6 sec) 
PIN_updateRegBaseBound( 94080245625040, 94080245887184)
updateCurrDst(34)
updateCurrDst(79)
updateCurrDst(159)
updateCurrDst(233)
updateCurrDst(527)
updateCurrDst(599)
updateCurrDst(661)
updateCurrDst(706)
updateCurrDst(776)
updateCurrDst(1054)
Heartbeat CPU 0 instructions: 3000001 cycles: 1013246 heartbeat IPC: 3.0764 cumulative IPC: 2.96078 (Simulation time: 0 hr 0 min 9 sec) 
updateCurrDst(1242)
updateCurrDst(1309)
updateCurrDst(1359)
updateCurrDst(1423)
updateCurrDst(1518)
updateCurrDst(1581)
updateCurrDst(1627)
updateCurrDst(1630)
updateCurrDst(1945)
updateCurrDst(1951)
updateCurrDst(1988)
updateCurrDst(2115)
updateCurrDst(2177)
updateCurrDst(2206)
updateCurrDst(2315)
updateCurrDst(2375)
updateCurrDst(2396)
updateCurrDst(2453)
updateCurrDst(2491)
updateCurrDst(2553)
updateCurrDst(2635)
updateCurrDst(2677)
updateCurrDst(2842)
updateCurrDst(2960)
updateCurrDst(3157)
updateCurrDst(3169)
Heartbeat CPU 0 instructions: 4000001 cycles: 1331026 heartbeat IPC: 3.14683 cumulative IPC: 3.0052 (Simulation time: 0 hr 0 min 13 sec) 
updateCurrDst(3282)
updateCurrDst(3295)
updateCurrDst(3495)
updateCurrDst(3504)
updateCurrDst(3526)
updateCurrDst(3569)
updateCurrDst(3595)
updateCurrDst(3604)
updateCurrDst(3862)
updateCurrDst(3977)
updateCurrDst(4148)
updateCurrDst(4330)
updateCurrDst(4340)
updateCurrDst(4406)
updateCurrDst(4444)
updateCurrDst(4530)
updateCurrDst(4605)
updateCurrDst(4626)
updateCurrDst(4677)
updateCurrDst(4783)
updateCurrDst(4855)
updateCurrDst(4857)
updateCurrDst(4893)
updateCurrDst(4999)
updateCurrDst(5006)
updateCurrDst(5200)
Heartbeat CPU 0 instructions: 5000003 cycles: 1648341 heartbeat IPC: 3.15145 cumulative IPC: 3.03335 (Simulation time: 0 hr 0 min 17 sec) 
updateCurrDst(5468)
updateCurrDst(5650)
updateCurrDst(6035)
updateCurrDst(6232)
updateCurrDst(6328)
updateCurrDst(6342)
updateCurrDst(6645)
updateCurrDst(6729)
updateCurrDst(6785)
updateCurrDst(6940)
updateCurrDst(7162)
updateCurrDst(7233)
Heartbeat CPU 0 instructions: 6000002 cycles: 1965747 heartbeat IPC: 3.15054 cumulative IPC: 3.05228 (Simulation time: 0 hr 0 min 21 sec) 
updateCurrDst(7475)
updateCurrDst(7480)
updateCurrDst(7554)
updateCurrDst(7586)
updateCurrDst(7696)
updateCurrDst(7878)
updateCurrDst(7912)
updateCurrDst(8046)
updateCurrDst(8066)
updateCurrDst(8120)
updateCurrDst(8152)
updateCurrDst(8176)
updateCurrDst(8286)
updateCurrDst(8351)
updateCurrDst(8397)
updateCurrDst(8437)
updateCurrDst(8497)
updateCurrDst(8643)
updateCurrDst(8756)
updateCurrDst(8813)
updateCurrDst(8968)
updateCurrDst(9036)
updateCurrDst(9059)
updateCurrDst(9088)
Heartbeat CPU 0 instructions: 7000003 cycles: 2282779 heartbeat IPC: 3.15426 cumulative IPC: 3.06644 (Simulation time: 0 hr 0 min 25 sec) 
updateCurrDst(9513)
updateCurrDst(9756)
updateCurrDst(9900)
updateCurrDst(10073)
updateCurrDst(10122)
updateCurrDst(10130)
updateCurrDst(10171)
updateCurrDst(10493)
updateCurrDst(10542)
updateCurrDst(10606)
updateCurrDst(10670)
updateCurrDst(10878)
updateCurrDst(10904)
updateCurrDst(11066)
updateCurrDst(11290)
Heartbeat CPU 0 instructions: 8000002 cycles: 2600215 heartbeat IPC: 3.15024 cumulative IPC: 3.07667 (Simulation time: 0 hr 0 min 29 sec) 
updateCurrDst(11584)
updateCurrDst(11923)
updateCurrDst(11990)
updateCurrDst(12015)
updateCurrDst(12086)
updateCurrDst(12146)
updateCurrDst(12164)
updateCurrDst(12345)
updateCurrDst(12354)
updateCurrDst(12375)
updateCurrDst(12388)
updateCurrDst(12391)
updateCurrDst(12460)
updateCurrDst(12523)
updateCurrDst(12588)
updateCurrDst(12590)
updateCurrDst(12615)
updateCurrDst(12636)
updateCurrDst(12639)
updateCurrDst(12832)
updateCurrDst(12914)
updateCurrDst(12967)
updateCurrDst(12983)
updateCurrDst(13013)
updateCurrDst(13316)
updateCurrDst(13317)
updateCurrDst(13380)
Heartbeat CPU 0 instructions: 9000002 cycles: 2917882 heartbeat IPC: 3.14795 cumulative IPC: 3.08443 (Simulation time: 0 hr 0 min 32 sec) 
updateCurrDst(13836)
updateCurrDst(13863)
updateCurrDst(13885)
updateCurrDst(13891)
updateCurrDst(14023)
updateCurrDst(14062)
updateCurrDst(14151)
updateCurrDst(14242)
updateCurrDst(14402)
updateCurrDst(14445)
updateCurrDst(14508)
updateCurrDst(14779)
updateCurrDst(14884)
updateCurrDst(14986)
updateCurrDst(15043)
updateCurrDst(15067)
updateCurrDst(15072)
updateCurrDst(15238)
updateCurrDst(15248)
updateCurrDst(15322)
updateCurrDst(15396)
Heartbeat CPU 0 instructions: 10000001 cycles: 3235213 heartbeat IPC: 3.15128 cumulative IPC: 3.09099 (Simulation time: 0 hr 0 min 36 sec) 
updateCurrDst(15882)
updateCurrDst(15923)
updateCurrDst(15987)
updateCurrDst(16297)
updateCurrDst(16404)
updateCurrDst(16435)
updateCurrDst(16446)
updateCurrDst(16484)
updateCurrDst(16522)
updateCurrDst(16658)
updateCurrDst(16726)
updateCurrDst(16942)
updateCurrDst(17137)
updateCurrDst(17188)
updateCurrDst(17202)
updateCurrDst(17304)
updateCurrDst(17338)
updateCurrDst(17393)
updateCurrDst(17407)
updateCurrDst(17411)
Heartbeat CPU 0 instructions: 11000000 cycles: 3552610 heartbeat IPC: 3.15063 cumulative IPC: 3.09632 (Simulation time: 0 hr 0 min 40 sec) 
updateCurrDst(18160)
updateCurrDst(18261)
updateCurrDst(18293)
updateCurrDst(18516)
updateCurrDst(18528)
updateCurrDst(18596)
updateCurrDst(18662)
updateCurrDst(18740)
updateCurrDst(18802)
updateCurrDst(18874)
updateCurrDst(18992)
updateCurrDst(19036)
updateCurrDst(19101)
updateCurrDst(19203)
updateCurrDst(19341)
updateCurrDst(19505)
updateCurrDst(19527)
updateCurrDst(19542)
updateCurrDst(19624)
updateCurrDst(19749)
updateCurrDst(19798)
Heartbeat CPU 0 instructions: 12000002 cycles: 3869951 heartbeat IPC: 3.15119 cumulative IPC: 3.10082 (Simulation time: 0 hr 0 min 44 sec) 
updateCurrDst(19889)
updateCurrDst(19906)
updateCurrDst(19945)
updateCurrDst(20161)
updateCurrDst(20249)
updateCurrDst(20596)
updateCurrDst(20606)
updateCurrDst(20683)
updateCurrDst(21149)
updateCurrDst(21299)
updateCurrDst(21385)
updateCurrDst(21449)
updateCurrDst(21571)
updateCurrDst(21588)
updateCurrDst(21654)
updateCurrDst(21746)
updateCurrDst(21840)
updateCurrDst(21851)
updateCurrDst(21888)
Heartbeat CPU 0 instructions: 13000002 cycles: 4187688 heartbeat IPC: 3.14726 cumulative IPC: 3.10434 (Simulation time: 0 hr 0 min 48 sec) 
updateCurrDst(22107)
updateCurrDst(22234)
updateCurrDst(22252)
updateCurrDst(22271)
updateCurrDst(22312)
updateCurrDst(22348)
updateCurrDst(22422)
updateCurrDst(22556)
updateCurrDst(22625)
updateCurrDst(22898)
updateCurrDst(22959)
updateCurrDst(23135)
updateCurrDst(23264)
updateCurrDst(23281)
updateCurrDst(23572)
updateCurrDst(23660)
updateCurrDst(23759)
updateCurrDst(23871)
Heartbeat CPU 0 instructions: 14000003 cycles: 4505285 heartbeat IPC: 3.14865 cumulative IPC: 3.10746 (Simulation time: 0 hr 0 min 52 sec) 
updateCurrDst(24052)
updateCurrDst(24067)
updateCurrDst(24085)
updateCurrDst(24302)
updateCurrDst(24331)
updateCurrDst(24386)
updateCurrDst(24700)
updateCurrDst(24709)
updateCurrDst(24937)
updateCurrDst(24995)
updateCurrDst(25032)
updateCurrDst(25180)
updateCurrDst(25205)
updateCurrDst(25405)
updateCurrDst(25591)
updateCurrDst(25758)
updateCurrDst(25853)
updateCurrDst(25883)
Heartbeat CPU 0 instructions: 15000000 cycles: 4823070 heartbeat IPC: 3.14677 cumulative IPC: 3.11005 (Simulation time: 0 hr 0 min 56 sec) 
updateCurrDst(26237)
updateCurrDst(26256)
updateCurrDst(26385)
updateCurrDst(26741)
updateCurrDst(26746)
updateCurrDst(26781)
updateCurrDst(26862)
updateCurrDst(27022)
updateCurrDst(27128)
updateCurrDst(27208)
updateCurrDst(27327)
updateCurrDst(27384)
updateCurrDst(27515)
updateCurrDst(27563)
updateCurrDst(27596)
updateCurrDst(28150)
Heartbeat CPU 0 instructions: 16000001 cycles: 5140562 heartbeat IPC: 3.14969 cumulative IPC: 3.1125 (Simulation time: 0 hr 1 min 0 sec) 

Warmup complete CPU 0 instructions: 16000001 cycles: 5140562 (Simulation time: 0 hr 1 min 0 sec) 

updateCurrDst(28216)
updateCurrDst(28597)
updateCurrDst(28686)
updateCurrDst(28725)
updateCurrDst(28798)
updateCurrDst(28982)
updateCurrDst(29128)
updateCurrDst(29197)
updateCurrDst(29300)
updateCurrDst(29327)
updateCurrDst(29342)
updateCurrDst(29422)
updateCurrDst(29467)
updateCurrDst(29539)
updateCurrDst(29578)
updateCurrDst(29584)
updateCurrDst(29593)
updateCurrDst(29726)
Heartbeat CPU 0 instructions: 17000000 cycles: 8073244 heartbeat IPC: 0.340984 cumulative IPC: 0.340984 (Simulation time: 0 hr 1 min 4 sec) 
updateCurrDst(30417)
updateCurrDst(30445)
updateCurrDst(30470)
updateCurrDst(30471)
updateCurrDst(30575)
updateCurrDst(30598)
updateCurrDst(30703)
updateCurrDst(30874)
updateCurrDst(30930)
updateCurrDst(31051)
updateCurrDst(31147)
updateCurrDst(31293)
updateCurrDst(31301)
updateCurrDst(31364)
updateCurrDst(31444)
updateCurrDst(31643)
updateCurrDst(31711)
updateCurrDst(31826)
updateCurrDst(32294)
Heartbeat CPU 0 instructions: 18000000 cycles: 11010183 heartbeat IPC: 0.340491 cumulative IPC: 0.340737 (Simulation time: 0 hr 1 min 8 sec) 
updateCurrDst(32382)
updateCurrDst(32427)
updateCurrDst(32712)
updateCurrDst(32791)
updateCurrDst(32800)
updateCurrDst(33077)
updateCurrDst(33175)
updateCurrDst(33187)
updateCurrDst(33215)
updateCurrDst(33222)
updateCurrDst(33339)
updateCurrDst(33817)
updateCurrDst(34130)
Heartbeat CPU 0 instructions: 19000000 cycles: 13942173 heartbeat IPC: 0.341065 cumulative IPC: 0.340847 (Simulation time: 0 hr 1 min 12 sec) 
updateCurrDst(34509)
updateCurrDst(34616)
updateCurrDst(34622)
updateCurrDst(35117)
updateCurrDst(35226)
updateCurrDst(35258)
updateCurrDst(35284)
updateCurrDst(35324)
updateCurrDst(35501)
updateCurrDst(35636)
updateCurrDst(35774)
updateCurrDst(35872)
updateCurrDst(35923)
updateCurrDst(36010)
updateCurrDst(36032)
updateCurrDst(36072)
updateCurrDst(36266)
updateCurrDst(36396)
updateCurrDst(36408)
updateCurrDst(36418)
updateCurrDst(36453)
Heartbeat CPU 0 instructions: 20000003 cycles: 16876258 heartbeat IPC: 0.340823 cumulative IPC: 0.340841 (Simulation time: 0 hr 1 min 16 sec) 
updateCurrDst(36543)
updateCurrDst(36604)
updateCurrDst(36621)
updateCurrDst(36672)
updateCurrDst(36738)
updateCurrDst(36769)
updateCurrDst(37017)
updateCurrDst(37182)
updateCurrDst(37422)
updateCurrDst(37492)
updateCurrDst(37816)
updateCurrDst(37832)
updateCurrDst(37862)
updateCurrDst(38090)
updateCurrDst(38270)
updateCurrDst(38527)
updateCurrDst(38535)
Heartbeat CPU 0 instructions: 21000003 cycles: 19810040 heartbeat IPC: 0.340857 cumulative IPC: 0.340844 (Simulation time: 0 hr 1 min 20 sec) 
updateCurrDst(38575)
updateCurrDst(38585)
updateCurrDst(38702)
updateCurrDst(38741)
updateCurrDst(38795)
updateCurrDst(38800)
updateCurrDst(38830)
updateCurrDst(39211)
updateCurrDst(39361)
updateCurrDst(39458)
updateCurrDst(39537)
updateCurrDst(39564)
updateCurrDst(39597)
updateCurrDst(39749)
updateCurrDst(39968)
updateCurrDst(39997)
updateCurrDst(40065)
updateCurrDst(40140)
updateCurrDst(40149)
updateCurrDst(40311)
updateCurrDst(40384)
updateCurrDst(40449)
updateCurrDst(40530)
updateCurrDst(40571)
Heartbeat CPU 0 instructions: 22000000 cycles: 22743359 heartbeat IPC: 0.34091 cumulative IPC: 0.340855 (Simulation time: 0 hr 1 min 24 sec) 
updateCurrDst(40807)
updateCurrDst(40902)
updateCurrDst(41250)
updateCurrDst(41380)
updateCurrDst(41517)
updateCurrDst(41760)
updateCurrDst(41769)
updateCurrDst(42031)
updateCurrDst(42041)
updateCurrDst(42165)
updateCurrDst(42383)
updateCurrDst(42398)
Heartbeat CPU 0 instructions: 23000002 cycles: 25678526 heartbeat IPC: 0.340697 cumulative IPC: 0.340832 (Simulation time: 0 hr 1 min 28 sec) 
updateCurrDst(42747)
updateCurrDst(42948)
updateCurrDst(43131)
updateCurrDst(43136)
updateCurrDst(43170)
updateCurrDst(43405)
updateCurrDst(43531)
updateCurrDst(43667)
updateCurrDst(43807)
updateCurrDst(44027)
updateCurrDst(44235)
updateCurrDst(44359)
updateCurrDst(44413)
updateCurrDst(44438)
updateCurrDst(44480)
updateCurrDst(44577)
updateCurrDst(44717)
updateCurrDst(44744)
updateCurrDst(44793)
Heartbeat CPU 0 instructions: 24000001 cycles: 28611037 heartbeat IPC: 0.341004 cumulative IPC: 0.340854 (Simulation time: 0 hr 1 min 33 sec) 
updateCurrDst(44923)
updateCurrDst(44972)
updateCurrDst(45029)
updateCurrDst(45080)
updateCurrDst(45151)
updateCurrDst(45534)
updateCurrDst(45655)
updateCurrDst(45745)
updateCurrDst(45876)
updateCurrDst(45918)
updateCurrDst(46056)
updateCurrDst(46064)
updateCurrDst(46145)
updateCurrDst(46284)
updateCurrDst(46298)
updateCurrDst(46323)
updateCurrDst(46347)
updateCurrDst(46619)
Heartbeat CPU 0 instructions: 25000000 cycles: 31542793 heartbeat IPC: 0.341092 cumulative IPC: 0.34088 (Simulation time: 0 hr 1 min 37 sec) 
updateCurrDst(46915)
updateCurrDst(47236)
updateCurrDst(47256)
updateCurrDst(47314)
updateCurrDst(47388)
updateCurrDst(47597)
updateCurrDst(47755)
updateCurrDst(47823)
updateCurrDst(48008)
updateCurrDst(48060)
updateCurrDst(48463)
updateCurrDst(48469)
updateCurrDst(48592)
updateCurrDst(48645)
updateCurrDst(48647)
updateCurrDst(48830)
Heartbeat CPU 0 instructions: 26000003 cycles: 34477293 heartbeat IPC: 0.340775 cumulative IPC: 0.34087 (Simulation time: 0 hr 1 min 41 sec) 
updateCurrDst(49061)
updateCurrDst(49134)
updateCurrDst(49143)
updateCurrDst(49746)
updateCurrDst(49829)
updateCurrDst(49929)
updateCurrDst(50117)
updateCurrDst(50205)
updateCurrDst(50406)
updateCurrDst(50575)
updateCurrDst(50613)
updateCurrDst(50698)
updateCurrDst(50717)
updateCurrDst(50719)
updateCurrDst(50754)
updateCurrDst(50981)
updateCurrDst(51020)
Heartbeat CPU 0 instructions: 27000000 cycles: 37410789 heartbeat IPC: 0.340889 cumulative IPC: 0.340871 (Simulation time: 0 hr 1 min 45 sec) 
updateCurrDst(51072)
updateCurrDst(51086)
updateCurrDst(51088)
updateCurrDst(51307)
updateCurrDst(51458)
updateCurrDst(51467)
updateCurrDst(51550)
updateCurrDst(51587)
updateCurrDst(51659)
updateCurrDst(51735)
updateCurrDst(51784)
updateCurrDst(51906)
updateCurrDst(52028)
updateCurrDst(52038)
updateCurrDst(52049)
updateCurrDst(52050)
updateCurrDst(52410)
updateCurrDst(52667)
updateCurrDst(52887)
updateCurrDst(53023)
updateCurrDst(53079)
Heartbeat CPU 0 instructions: 28000000 cycles: 40343058 heartbeat IPC: 0.341033 cumulative IPC: 0.340885 (Simulation time: 0 hr 1 min 49 sec) 
updateCurrDst(53250)
updateCurrDst(53389)
updateCurrDst(53414)
updateCurrDst(53509)
updateCurrDst(53598)
updateCurrDst(53728)
updateCurrDst(53882)
updateCurrDst(53917)
updateCurrDst(54002)
updateCurrDst(54097)
updateCurrDst(54399)
updateCurrDst(54423)
updateCurrDst(54571)
updateCurrDst(54831)
updateCurrDst(54876)
updateCurrDst(54897)
updateCurrDst(55000)
Heartbeat CPU 0 instructions: 29000003 cycles: 43275014 heartbeat IPC: 0.34107 cumulative IPC: 0.340899 (Simulation time: 0 hr 1 min 53 sec) 
updateCurrDst(55245)
updateCurrDst(55445)
updateCurrDst(55456)
updateCurrDst(55533)
updateCurrDst(55570)
updateCurrDst(55624)
updateCurrDst(55628)
updateCurrDst(55717)
updateCurrDst(56073)
updateCurrDst(56130)
updateCurrDst(56137)
updateCurrDst(56362)
updateCurrDst(56378)
updateCurrDst(56460)
updateCurrDst(56482)
updateCurrDst(56670)
updateCurrDst(56722)
updateCurrDst(56837)
updateCurrDst(56957)
updateCurrDst(57037)
updateCurrDst(57100)
updateCurrDst(57130)
updateCurrDst(57209)
updateCurrDst(57234)
updateCurrDst(57252)
Heartbeat CPU 0 instructions: 30000001 cycles: 46212357 heartbeat IPC: 0.340443 cumulative IPC: 0.340867 (Simulation time: 0 hr 1 min 57 sec) 
updateCurrDst(57345)
updateCurrDst(57424)
updateCurrDst(57494)
updateCurrDst(57600)
updateCurrDst(57628)
updateCurrDst(57666)
updateCurrDst(57701)
updateCurrDst(57780)
updateCurrDst(57784)
updateCurrDst(57923)
updateCurrDst(57928)
updateCurrDst(58082)
updateCurrDst(58154)
updateCurrDst(58186)
updateCurrDst(58187)
updateCurrDst(58668)
updateCurrDst(58741)
updateCurrDst(58791)
updateCurrDst(58857)
updateCurrDst(59062)
updateCurrDst(59260)
Heartbeat CPU 0 instructions: 31000001 cycles: 49143574 heartbeat IPC: 0.341155 cumulative IPC: 0.340886 (Simulation time: 0 hr 2 min 2 sec) 
updateCurrDst(59456)
updateCurrDst(59604)
updateCurrDst(59651)
updateCurrDst(59684)
updateCurrDst(59723)
updateCurrDst(59809)
updateCurrDst(60073)
updateCurrDst(60085)
updateCurrDst(60237)
updateCurrDst(60256)
updateCurrDst(60512)
updateCurrDst(60710)
updateCurrDst(60853)
updateCurrDst(60865)
updateCurrDst(60959)
updateCurrDst(61021)
updateCurrDst(61037)
updateCurrDst(61079)
updateCurrDst(61211)
updateCurrDst(61342)
updateCurrDst(61364)
updateCurrDst(61371)
*** Reached end of trace for Core: 0 Repeating trace: tracer/pull_u16_k3.xzafter: 32000000
Heartbeat CPU 0 instructions: 32000002 cycles: 52077481 heartbeat IPC: 0.340843 cumulative IPC: 0.340883 (Simulation time: 0 hr 2 min 6 sec) 
Finished CPU 0 instructions: 16000001 cycles: 46936919 cumulative IPC: 0.340883 (Simulation time: 0 hr 2 min 6 sec) 

ChampSim completed all CPUs

Region of Interest Statistics

CPU 0 cumulative IPC: 0.340883 instructions: 16000001 cycles: 46936919

Total ROB STALLS:                    6381206
STLB MISS ROB STALLS:                    194
L1D  LOAD MISS ROB STALLS:            184720  Translation MISS ROB STALLS:             0
L2C  LOAD MISS ROB STALLS:             18744  Translation MISS ROB STALLS:             0
LLC  LOAD MISS ROB STALLS:             12513  Translation MISS ROB STALLS:             0

ITLB TOTAL     ACCESS:           2163753  HIT:    2163753  MISS:          0  HIT %:        100  MISS %:          0   MPKI: 0
ITLB LOAD TRANSLATION ACCESS:    2163753  HIT:    2163753  MISS:          0  HIT %:        100  MISS %:          0   MPKI: 0
ITLB AVERAGE MISS LATENCY:          -nan cycles
ITLB RQ ACCESS:     2361498	FORWARD:           0	MERGED:       197746	TO_CACHE:    2163752

DTLB TOTAL     ACCESS:           4716148  HIT:    4699389  MISS:      16759  HIT %:    99.6446  MISS %:   0.355354   MPKI: 1.04744
DTLB LOAD TRANSLATION ACCESS:    4716148  HIT:    4699389  MISS:      16759  HIT %:    99.6446  MISS %:   0.355354   MPKI: 1.04744
DTLB AVERAGE MISS LATENCY:       11.9051 cycles
DTLB RQ ACCESS:     6489513	FORWARD:           0	MERGED:      1773365	TO_CACHE:    4716148

STLB TOTAL     ACCESS:             16758  HIT:      16564  MISS:        194  HIT %:    98.8423  MISS %:    1.15766   MPKI: 0.012125
STLB LOAD TRANSLATION ACCESS:      16758  HIT:      16564  MISS:        194  HIT %:    98.8423  MISS %:    1.15766   MPKI: 0.012125
STLB AVERAGE MISS LATENCY:           251 cycles
STLB RQ ACCESS:       16758	FORWARD:           0	MERGED:            0	TO_CACHE:      16758

PSCL5 TOTAL     ACCESS:               194  HIT:        194  MISS:          0  HIT %:        100  MISS %:          0   MPKI: 0
PSCL5 LOAD TRANSLATION ACCESS:        194  HIT:        194  MISS:          0  HIT %:        100  MISS %:          0   MPKI: 0

PSCL4 TOTAL     ACCESS:               194  HIT:        194  MISS:          0  HIT %:        100  MISS %:          0   MPKI: 0
PSCL4 LOAD TRANSLATION ACCESS:        194  HIT:        194  MISS:          0  HIT %:        100  MISS %:          0   MPKI: 0

PSCL3 TOTAL     ACCESS:               194  HIT:        194  MISS:          0  HIT %:        100  MISS %:          0   MPKI: 0
PSCL3 LOAD TRANSLATION ACCESS:        194  HIT:        194  MISS:          0  HIT %:        100  MISS %:          0   MPKI: 0

PSCL2 TOTAL     ACCESS:               194  HIT:        194  MISS:          0  HIT %:        100  MISS %:          0   MPKI: 0
PSCL2 LOAD TRANSLATION ACCESS:        194  HIT:        194  MISS:          0  HIT %:        100  MISS %:          0   MPKI: 0

L1D TOTAL     ACCESS:           6489513  HIT:    6304794  MISS:     184719  HIT %:    97.1536  MISS %:    2.84642   MPKI: 11.5449  USED:      46713  UNUSED:     138006
L1D LOAD      ACCESS:           2797213  HIT:    2612494  MISS:     184719  HIT %:    93.3963  MISS %:    6.60368   MPKI: 11.5449  USED:      46713  UNUSED:     138006
L1D RFO       ACCESS:           3692300  HIT:    3692300  MISS:          0  HIT %:        100  MISS %:          0   MPKI: 0
L1D PTL1 TRANSLATION ACCESS:          0  HIT:          0  MISS:          0  HIT %:       -nan  MISS %:       -nan   MPKI: 0
L1D PTL2 TRANSLATION ACCESS:          0  HIT:          0  MISS:          0  HIT %:       -nan  MISS %:       -nan   MPKI: 0
L1D PTL3 TRANSLATION ACCESS:          0  HIT:          0  MISS:          0  HIT %:       -nan  MISS %:       -nan   MPKI: 0
L1D PTL4 TRANSLATION ACCESS:          0  HIT:          0  MISS:          0  HIT %:       -nan  MISS %:       -nan   MPKI: 0
L1D PTL5 TRANSLATION ACCESS:          0  HIT:          0  MISS:          0  HIT %:       -nan  MISS %:       -nan   MPKI: 0
L1D TOTAL EVICTIONS:             184719  TRANSLATION EVICTIONS:          0  TRANSLATION EVICTING TRANSALTION:          0  TRANSLATION EVICTING LOAD:          0  LOAD EVICTING TRANSALTION:          0  LOAD EVICTING LOAD:      184719
L1D AVERAGE MISS LATENCY:       22.9981 cycles  AVERAGE LOAD MISS LATENCY:       22.9981 cycles  AVERAGE LOAD TRANSLATION MISS LATENCY:          -nan cycles
L1D RQ ACCESS:     4063432	FORWARD:           0	MERGED:       866196	TO_CACHE:    2797214
L1D WQ ACCESS:     3692303	FORWARD:      400022	MERGED:            4	TO_CACHE:    3692299

L1I TOTAL     ACCESS:           2361499  HIT:    2361499  MISS:          0  HIT %:        100  MISS %:          0   MPKI: 0
L1I LOAD      ACCESS:           2361499  HIT:    2361499  MISS:          0  HIT %:        100  MISS %:          0   MPKI: 0
L1I AVERAGE MISS LATENCY:          -nan cycles
L1I RQ ACCESS:     3732383	FORWARD:           0	MERGED:      1370885	TO_CACHE:    2361498

L2C TOTAL     ACCESS:            186798  HIT:     168055  MISS:      18743  HIT %:    89.9662  MISS %:    10.0338   MPKI: 1.17144  USED:         33  UNUSED:      18710
L2C LOAD      ACCESS:            184719  HIT:     165976  MISS:      18743  HIT %:    89.8532  MISS %:    10.1468   MPKI: 1.17144  USED:         11  UNUSED:      18710
L2C WRITEBACK ACCESS:              2079  HIT:       2079  MISS:          0  HIT %:        100  MISS %:          0   MPKI: 0
L2C PTL1 TRANSLATION ACCESS:          0  HIT:          0  MISS:          0  HIT %:       -nan  MISS %:       -nan   MPKI: 0
L2C PTL2 TRANSLATION ACCESS:          0  HIT:          0  MISS:          0  HIT %:       -nan  MISS %:       -nan   MPKI: 0
L2C PTL3 TRANSLATION ACCESS:          0  HIT:          0  MISS:          0  HIT %:       -nan  MISS %:       -nan   MPKI: 0
L2C PTL4 TRANSLATION ACCESS:          0  HIT:          0  MISS:          0  HIT %:       -nan  MISS %:       -nan   MPKI: 0
L2C PTL5 TRANSLATION ACCESS:          0  HIT:          0  MISS:          0  HIT %:       -nan  MISS %:       -nan   MPKI: 0
L2C TOTAL EVICTIONS:              18743  TRANSLATION EVICTIONS:          0  TRANSLATION EVICTING TRANSALTION:          0  TRANSLATION EVICTING LOAD:          0  LOAD EVICTING TRANSALTION:          0  LOAD EVICTING LOAD:       18721
L2C AVERAGE MISS LATENCY:       78.8241 cycles  AVERAGE LOAD MISS LATENCY:       78.8241 cycles  AVERAGE LOAD TRANSLATION MISS LATENCY:          -nan cycles
L2C RQ ACCESS:      184720	FORWARD:           0	MERGED:            0	TO_CACHE:     184720
L2C WQ ACCESS:        2079	FORWARD:           0	MERGED:            0	TO_CACHE:       2079

LLC TOTAL     ACCESS:             20694  HIT:       8150  MISS:      12544  HIT %:    39.3834  MISS %:    60.6166   MPKI: 0.784  USED:          0  UNUSED:          0
LLC LOAD      ACCESS:             18743  HIT:       6230  MISS:      12513  HIT %:    33.2391  MISS %:    66.7609   MPKI: 0.782062  USED:          0  UNUSED:          0
LLC WRITEBACK ACCESS:              1951  HIT:       1920  MISS:         31  HIT %:    98.4111  MISS %:    1.58893   MPKI: 0.0019375
LLC PTL1 TRANSLATION ACCESS:          0  HIT:          0  MISS:          0  HIT %:       -nan  MISS %:       -nan   MPKI: 0
LLC PTL2 TRANSLATION ACCESS:          0  HIT:          0  MISS:          0  HIT %:       -nan  MISS %:       -nan   MPKI: 0
LLC PTL3 TRANSLATION ACCESS:          0  HIT:          0  MISS:          0  HIT %:       -nan  MISS %:       -nan   MPKI: 0
LLC PTL4 TRANSLATION ACCESS:          0  HIT:          0  MISS:          0  HIT %:       -nan  MISS %:       -nan   MPKI: 0
LLC PTL5 TRANSLATION ACCESS:          0  HIT:          0  MISS:          0  HIT %:       -nan  MISS %:       -nan   MPKI: 0
LLC TOTAL EVICTIONS:                  0  TRANSLATION EVICTIONS:          0  TRANSLATION EVICTING TRANSALTION:          0  TRANSLATION EVICTING LOAD:          0  LOAD EVICTING TRANSALTION:          0  LOAD EVICTING LOAD:           0
LLC AVERAGE MISS LATENCY:        72.952 cycles  AVERAGE LOAD MISS LATENCY:       73.1327 cycles  AVERAGE LOAD TRANSLATION MISS LATENCY:          -nan cycles
LLC RQ ACCESS:       18744	FORWARD:           0	MERGED:            0	TO_CACHE:      18744
LLC WQ ACCESS:        1951	FORWARD:           0	MERGED:            0	TO_CACHE:       1951


RAW hits: 2722491
Loads Generated: 6785923
Loads sent to L1D: 4063432
Stores Generated: 3692301
Stores sent to L1D: 3692303
Major fault: 0 Minor fault: 830
Allocated PAGES: 830
IRREG DATA L1D ACCESS: 368630
L2C ACCESSES: 306641
L2C MISSES: 1151
Total LLC accesses: 43957
Total Irreg accesses: 2104

DRAM Statistics
 CHANNEL 0
 RQ ROW_BUFFER_HIT:      12121  ROW_BUFFER_MISS:        586
 DBUS_CONGESTED:          0
 WQ ROW_BUFFER_HIT:          0  ROW_BUFFER_MISS:         33  FULL:          0

 AVG_CONGESTED_CYCLE: -

CPU 0 Branch Prediction Accuracy: 98.3104% MPKI: 2.0725 Average ROB Occupancy at Mispredict: 16.1586
Branch types
NOT_BRANCH: 14037084 87.7318%
BRANCH_DIRECT_JUMP: 0 0%
BRANCH_INDIRECT: 232872 1.45545%
BRANCH_CONDITIONAL: 0 0%
BRANCH_DIRECT_CALL: 33254 0.207837%
BRANCH_INDIRECT_CALL: 665265 4.15791%
BRANCH_RETURN: 698519 4.36574%
BRANCH_OTHER: 332633 2.07896%

DRAM PAGES: 1048576
Allocated PAGES: 830
