
*** ChampSim Multicore Out-of-Order Simulator ***

Warmup Instructions: 75000000
Simulation Instructions: 75000000
Number of CPUs: 1
LLC sets: 2048
LLC ways: 16
Off-chip DRAM Size: 4096 MB Channels: 1 Width: 64-bit Data Rate: 6400 MT/s
CPU 0 runs testcases/pull_g18_k4.xz
.xz
BTB has LRU replacement policy
ITLB has LRU replacement policy
DTLB has LRU replacement policy
STLB has LRU replacement policy
L1I has LRU replacement policy
L1D has LRU replacement policy
L2C has LRU replacement policy
LLC has LRU replacement policy
PIN_registerGraphs(test_g18_k4.sg,1)
Graphh Number of Nodes: 262143
Heartbeat CPU 0 instructions: 1000002 cycles: 347789 heartbeat IPC: 2.87531 cumulative IPC: 2.87531 (Simulation time: 0 hr 0 min 5 sec) 
Heartbeat CPU 0 instructions: 2000000 cycles: 681123 heartbeat IPC: 2.99999 cumulative IPC: 2.93633 (Simulation time: 0 hr 0 min 8 sec) 
Heartbeat CPU 0 instructions: 3000001 cycles: 1014393 heartbeat IPC: 3.00057 cumulative IPC: 2.95743 (Simulation time: 0 hr 0 min 11 sec) 
Heartbeat CPU 0 instructions: 4000001 cycles: 1347727 heartbeat IPC: 2.99999 cumulative IPC: 2.96796 (Simulation time: 0 hr 0 min 14 sec) 
Heartbeat CPU 0 instructions: 5000001 cycles: 1681059 heartbeat IPC: 3.00001 cumulative IPC: 2.97432 (Simulation time: 0 hr 0 min 18 sec) 
PIN_updateRegBaseBound( 94101485359248, 94101486407820)
updateCurrDst(245)
updateCurrDst(306)
updateCurrDst(355)
updateCurrDst(420)
updateCurrDst(575)
updateCurrDst(655)
updateCurrDst(862)
updateCurrDst(921)
updateCurrDst(1048)
updateCurrDst(1240)
updateCurrDst(1288)
updateCurrDst(1417)
updateCurrDst(1424)
updateCurrDst(1489)
updateCurrDst(1533)
updateCurrDst(1554)
updateCurrDst(1575)
Heartbeat CPU 0 instructions: 6000001 cycles: 2000550 heartbeat IPC: 3.12998 cumulative IPC: 2.99918 (Simulation time: 0 hr 0 min 24 sec) 
updateCurrDst(1774)
updateCurrDst(1854)
updateCurrDst(1953)
updateCurrDst(2072)
updateCurrDst(2129)
updateCurrDst(2194)
updateCurrDst(2421)
updateCurrDst(2857)
updateCurrDst(2873)
updateCurrDst(2917)
updateCurrDst(2924)
updateCurrDst(2954)
Heartbeat CPU 0 instructions: 7000002 cycles: 2316554 heartbeat IPC: 3.16452 cumulative IPC: 3.02173 (Simulation time: 0 hr 0 min 30 sec) 
updateCurrDst(3244)
updateCurrDst(3283)
updateCurrDst(3361)
updateCurrDst(3403)
updateCurrDst(3614)
updateCurrDst(3882)
updateCurrDst(3977)
updateCurrDst(3987)
updateCurrDst(4024)
updateCurrDst(4120)
updateCurrDst(4250)
updateCurrDst(4296)
updateCurrDst(4299)
updateCurrDst(4378)
updateCurrDst(4396)
updateCurrDst(4501)
updateCurrDst(4531)
updateCurrDst(4691)
updateCurrDst(4789)
updateCurrDst(4857)
updateCurrDst(4946)
Heartbeat CPU 0 instructions: 8000000 cycles: 2635445 heartbeat IPC: 3.13586 cumulative IPC: 3.03554 (Simulation time: 0 hr 0 min 37 sec) 
updateCurrDst(5104)
updateCurrDst(5323)
updateCurrDst(5517)
updateCurrDst(5764)
updateCurrDst(5932)
updateCurrDst(5992)
updateCurrDst(6101)
updateCurrDst(6342)
updateCurrDst(6618)
updateCurrDst(6630)
updateCurrDst(6686)
Heartbeat CPU 0 instructions: 9000002 cycles: 2953356 heartbeat IPC: 3.14554 cumulative IPC: 3.04738 (Simulation time: 0 hr 0 min 43 sec) 
updateCurrDst(6768)
updateCurrDst(6847)
updateCurrDst(6937)
updateCurrDst(6968)
updateCurrDst(7190)
updateCurrDst(7227)
updateCurrDst(7596)
updateCurrDst(7781)
updateCurrDst(7804)
updateCurrDst(7875)
updateCurrDst(8066)
updateCurrDst(8179)
updateCurrDst(8202)
updateCurrDst(8255)
updateCurrDst(8272)
updateCurrDst(8354)
updateCurrDst(8489)
updateCurrDst(8509)
updateCurrDst(8521)
updateCurrDst(8688)
Heartbeat CPU 0 instructions: 10000003 cycles: 3274190 heartbeat IPC: 3.11688 cumulative IPC: 3.05419 (Simulation time: 0 hr 0 min 49 sec) 
updateCurrDst(8815)
updateCurrDst(8857)
updateCurrDst(8901)
updateCurrDst(9139)
updateCurrDst(9227)
updateCurrDst(9350)
updateCurrDst(9941)
updateCurrDst(9959)
updateCurrDst(10077)
updateCurrDst(10131)
updateCurrDst(10420)
updateCurrDst(10433)
updateCurrDst(10445)
updateCurrDst(10602)
updateCurrDst(10645)
updateCurrDst(10659)
Heartbeat CPU 0 instructions: 11000000 cycles: 3596828 heartbeat IPC: 3.09944 cumulative IPC: 3.05825 (Simulation time: 0 hr 0 min 55 sec) 
updateCurrDst(10828)
updateCurrDst(10897)
updateCurrDst(11000)
updateCurrDst(11026)
updateCurrDst(11028)
updateCurrDst(11040)
updateCurrDst(11520)
updateCurrDst(11589)
updateCurrDst(11633)
updateCurrDst(11778)
updateCurrDst(11796)
updateCurrDst(11858)
updateCurrDst(12047)
updateCurrDst(12317)
Heartbeat CPU 0 instructions: 12000002 cycles: 3913459 heartbeat IPC: 3.15826 cumulative IPC: 3.06634 (Simulation time: 0 hr 1 min 1 sec) 
updateCurrDst(12491)
updateCurrDst(12708)
updateCurrDst(12747)
updateCurrDst(13008)
updateCurrDst(13028)
updateCurrDst(13031)
updateCurrDst(13058)
updateCurrDst(13385)
updateCurrDst(13424)
updateCurrDst(13835)
updateCurrDst(13868)
Heartbeat CPU 0 instructions: 13000001 cycles: 4230177 heartbeat IPC: 3.15738 cumulative IPC: 3.07316 (Simulation time: 0 hr 1 min 7 sec) 
updateCurrDst(14126)
updateCurrDst(14175)
updateCurrDst(14362)
updateCurrDst(14392)
updateCurrDst(14649)
updateCurrDst(14730)
updateCurrDst(14853)
updateCurrDst(14968)
updateCurrDst(15097)
updateCurrDst(15124)
updateCurrDst(15159)
updateCurrDst(15184)
updateCurrDst(15293)
updateCurrDst(15492)
updateCurrDst(15496)
updateCurrDst(15565)
updateCurrDst(15617)
updateCurrDst(15646)
Heartbeat CPU 0 instructions: 14000000 cycles: 4546707 heartbeat IPC: 3.15926 cumulative IPC: 3.07915 (Simulation time: 0 hr 1 min 14 sec) 
updateCurrDst(15705)
updateCurrDst(15865)
updateCurrDst(15967)
updateCurrDst(16148)
updateCurrDst(16355)
updateCurrDst(16478)
updateCurrDst(16584)
updateCurrDst(16587)
updateCurrDst(16853)
updateCurrDst(16897)
updateCurrDst(16947)
updateCurrDst(17069)
Heartbeat CPU 0 instructions: 15000001 cycles: 4860596 heartbeat IPC: 3.18584 cumulative IPC: 3.08604 (Simulation time: 0 hr 1 min 21 sec) 
updateCurrDst(17139)
updateCurrDst(17217)
updateCurrDst(17689)
updateCurrDst(17748)
updateCurrDst(17784)
updateCurrDst(17950)
updateCurrDst(18215)
updateCurrDst(18331)
updateCurrDst(18372)
updateCurrDst(18482)
updateCurrDst(18567)
updateCurrDst(18643)
Heartbeat CPU 0 instructions: 16000002 cycles: 5175438 heartbeat IPC: 3.1762 cumulative IPC: 3.09153 (Simulation time: 0 hr 1 min 27 sec) 
updateCurrDst(18658)
updateCurrDst(18843)
updateCurrDst(18878)
updateCurrDst(19052)
updateCurrDst(19283)
updateCurrDst(19392)
updateCurrDst(19582)
updateCurrDst(19765)
updateCurrDst(19770)
updateCurrDst(20035)
updateCurrDst(20116)
updateCurrDst(20165)
updateCurrDst(20200)
Heartbeat CPU 0 instructions: 17000000 cycles: 5491429 heartbeat IPC: 3.16464 cumulative IPC: 3.09573 (Simulation time: 0 hr 1 min 33 sec) 
updateCurrDst(20420)
updateCurrDst(20460)
updateCurrDst(20565)
updateCurrDst(20595)
updateCurrDst(20612)
updateCurrDst(20693)
updateCurrDst(20848)
updateCurrDst(21272)
updateCurrDst(21325)
updateCurrDst(21367)
updateCurrDst(21374)
updateCurrDst(21768)
updateCurrDst(21789)
Heartbeat CPU 0 instructions: 18000002 cycles: 5807843 heartbeat IPC: 3.16042 cumulative IPC: 3.09926 (Simulation time: 0 hr 1 min 39 sec) 
updateCurrDst(21994)
updateCurrDst(22217)
updateCurrDst(22276)
updateCurrDst(22295)
updateCurrDst(22513)
updateCurrDst(22595)
updateCurrDst(22680)
updateCurrDst(22712)
updateCurrDst(22725)
updateCurrDst(22759)
updateCurrDst(22817)
updateCurrDst(23113)
updateCurrDst(23139)
updateCurrDst(23166)
updateCurrDst(23377)
updateCurrDst(23413)
updateCurrDst(23468)
updateCurrDst(23473)
updateCurrDst(23601)
Heartbeat CPU 0 instructions: 19000003 cycles: 6126621 heartbeat IPC: 3.13698 cumulative IPC: 3.10122 (Simulation time: 0 hr 1 min 45 sec) 
updateCurrDst(23843)
updateCurrDst(23937)
updateCurrDst(23951)
updateCurrDst(23952)
updateCurrDst(23982)
updateCurrDst(24099)
updateCurrDst(24589)
updateCurrDst(24939)
updateCurrDst(25092)
updateCurrDst(25111)
updateCurrDst(25151)
updateCurrDst(25503)
Heartbeat CPU 0 instructions: 20000001 cycles: 6446025 heartbeat IPC: 3.13082 cumulative IPC: 3.10269 (Simulation time: 0 hr 1 min 52 sec) 
updateCurrDst(25588)
updateCurrDst(25644)
updateCurrDst(25884)
updateCurrDst(26026)
updateCurrDst(26127)
updateCurrDst(26227)
updateCurrDst(26413)
updateCurrDst(26596)
updateCurrDst(26724)
updateCurrDst(26735)
updateCurrDst(26758)
updateCurrDst(26779)
updateCurrDst(26873)
updateCurrDst(26885)
updateCurrDst(26923)
updateCurrDst(27019)
Heartbeat CPU 0 instructions: 21000000 cycles: 6761642 heartbeat IPC: 3.16839 cumulative IPC: 3.10575 (Simulation time: 0 hr 1 min 59 sec) 
updateCurrDst(27182)
updateCurrDst(27299)
updateCurrDst(27385)
updateCurrDst(27389)
updateCurrDst(27395)
updateCurrDst(27499)
updateCurrDst(27571)
updateCurrDst(27630)
updateCurrDst(27814)
updateCurrDst(27931)
updateCurrDst(27982)
updateCurrDst(28035)
updateCurrDst(28099)
updateCurrDst(28252)
updateCurrDst(28338)
updateCurrDst(28438)
updateCurrDst(28559)
updateCurrDst(28585)
updateCurrDst(28653)
updateCurrDst(28678)
updateCurrDst(28758)
updateCurrDst(28779)
updateCurrDst(28863)
updateCurrDst(28943)
Heartbeat CPU 0 instructions: 22000000 cycles: 7080299 heartbeat IPC: 3.13817 cumulative IPC: 3.10721 (Simulation time: 0 hr 2 min 5 sec) 
updateCurrDst(29096)
updateCurrDst(29197)
updateCurrDst(29258)
updateCurrDst(29273)
updateCurrDst(29422)
updateCurrDst(29442)
updateCurrDst(29482)
updateCurrDst(29530)
updateCurrDst(29777)
updateCurrDst(29843)
updateCurrDst(29907)
updateCurrDst(30045)
updateCurrDst(30141)
updateCurrDst(30326)
updateCurrDst(30349)
updateCurrDst(30354)
updateCurrDst(30884)
Heartbeat CPU 0 instructions: 23000001 cycles: 7402595 heartbeat IPC: 3.10274 cumulative IPC: 3.10702 (Simulation time: 0 hr 2 min 11 sec) 
updateCurrDst(31038)
updateCurrDst(31104)
updateCurrDst(31195)
updateCurrDst(31205)
updateCurrDst(31345)
updateCurrDst(31348)
updateCurrDst(31366)
updateCurrDst(31681)
updateCurrDst(31833)
updateCurrDst(31946)
updateCurrDst(31979)
updateCurrDst(32140)
updateCurrDst(32244)
updateCurrDst(32401)
updateCurrDst(32481)
updateCurrDst(32586)
updateCurrDst(32785)
Heartbeat CPU 0 instructions: 24000000 cycles: 7722278 heartbeat IPC: 3.1281 cumulative IPC: 3.10789 (Simulation time: 0 hr 2 min 17 sec) 
updateCurrDst(33115)
updateCurrDst(33227)
updateCurrDst(33256)
updateCurrDst(33299)
updateCurrDst(33333)
updateCurrDst(33430)
updateCurrDst(33442)
updateCurrDst(33521)
updateCurrDst(33528)
updateCurrDst(33535)
updateCurrDst(33609)
updateCurrDst(33711)
updateCurrDst(33713)
updateCurrDst(33718)
updateCurrDst(34001)
updateCurrDst(34002)
updateCurrDst(34059)
updateCurrDst(34147)
updateCurrDst(34240)
updateCurrDst(34294)
updateCurrDst(34528)
Heartbeat CPU 0 instructions: 25000002 cycles: 8039746 heartbeat IPC: 3.14993 cumulative IPC: 3.10955 (Simulation time: 0 hr 2 min 24 sec) 
updateCurrDst(34606)
updateCurrDst(34691)
updateCurrDst(34845)
updateCurrDst(34964)
updateCurrDst(35083)
updateCurrDst(35205)
updateCurrDst(35298)
updateCurrDst(35422)
updateCurrDst(35457)
updateCurrDst(35549)
updateCurrDst(35649)
updateCurrDst(35692)
updateCurrDst(35732)
updateCurrDst(35733)
updateCurrDst(35737)
updateCurrDst(35798)
updateCurrDst(35847)
updateCurrDst(36140)
updateCurrDst(36153)
updateCurrDst(36266)
updateCurrDst(36281)
updateCurrDst(36337)
updateCurrDst(36416)
updateCurrDst(36507)
Heartbeat CPU 0 instructions: 26000002 cycles: 8361961 heartbeat IPC: 3.10352 cumulative IPC: 3.10932 (Simulation time: 0 hr 2 min 31 sec) 
updateCurrDst(36717)
updateCurrDst(36721)
updateCurrDst(36758)
updateCurrDst(36851)
updateCurrDst(36891)
updateCurrDst(36972)
updateCurrDst(37058)
updateCurrDst(37242)
updateCurrDst(37372)
updateCurrDst(37399)
updateCurrDst(37513)
updateCurrDst(37642)
updateCurrDst(37733)
updateCurrDst(37762)
updateCurrDst(37783)
Heartbeat CPU 0 instructions: 27000003 cycles: 8673781 heartbeat IPC: 3.20698 cumulative IPC: 3.11283 (Simulation time: 0 hr 2 min 37 sec) 
updateCurrDst(38130)
updateCurrDst(38162)
updateCurrDst(38176)
updateCurrDst(38216)
updateCurrDst(38356)
updateCurrDst(38370)
updateCurrDst(38593)
updateCurrDst(38788)
updateCurrDst(38887)
updateCurrDst(38904)
updateCurrDst(39010)
updateCurrDst(39023)
updateCurrDst(39576)
updateCurrDst(39655)
Heartbeat CPU 0 instructions: 28000000 cycles: 8994070 heartbeat IPC: 3.12217 cumulative IPC: 3.11316 (Simulation time: 0 hr 2 min 44 sec) 
updateCurrDst(39825)
updateCurrDst(40108)
updateCurrDst(40229)
updateCurrDst(40459)
updateCurrDst(40550)
updateCurrDst(40588)
updateCurrDst(40713)
updateCurrDst(40721)
updateCurrDst(40923)
updateCurrDst(40927)
updateCurrDst(41157)
updateCurrDst(41233)
updateCurrDst(41274)
updateCurrDst(41336)
updateCurrDst(41489)
updateCurrDst(41535)
Heartbeat CPU 0 instructions: 29000002 cycles: 9312541 heartbeat IPC: 3.14001 cumulative IPC: 3.11408 (Simulation time: 0 hr 2 min 50 sec) 
updateCurrDst(41617)
updateCurrDst(41726)
updateCurrDst(41745)
updateCurrDst(41838)
updateCurrDst(41866)
updateCurrDst(41876)
updateCurrDst(41948)
updateCurrDst(41987)
updateCurrDst(42002)
updateCurrDst(42018)
updateCurrDst(42042)
updateCurrDst(42135)
updateCurrDst(42222)
updateCurrDst(42518)
updateCurrDst(42545)
updateCurrDst(42573)
updateCurrDst(42687)
updateCurrDst(42707)
updateCurrDst(42714)
updateCurrDst(42908)
Heartbeat CPU 0 instructions: 30000001 cycles: 9632814 heartbeat IPC: 3.12233 cumulative IPC: 3.11435 (Simulation time: 0 hr 2 min 56 sec) 
updateCurrDst(43508)
updateCurrDst(43692)
updateCurrDst(43738)
updateCurrDst(43746)
updateCurrDst(43795)
updateCurrDst(43866)
updateCurrDst(43972)
updateCurrDst(44178)
updateCurrDst(44227)
updateCurrDst(44282)
updateCurrDst(44293)
updateCurrDst(44309)
updateCurrDst(44741)
updateCurrDst(44932)
updateCurrDst(45043)
updateCurrDst(45058)
updateCurrDst(45136)
updateCurrDst(45150)
Heartbeat CPU 0 instructions: 31000000 cycles: 9951382 heartbeat IPC: 3.13904 cumulative IPC: 3.11515 (Simulation time: 0 hr 3 min 2 sec) 
updateCurrDst(45420)
updateCurrDst(45439)
updateCurrDst(45456)
updateCurrDst(45628)
updateCurrDst(45654)
updateCurrDst(45663)
updateCurrDst(45677)
updateCurrDst(45815)
updateCurrDst(45959)
updateCurrDst(45977)
updateCurrDst(45999)
updateCurrDst(46214)
updateCurrDst(46232)
updateCurrDst(46322)
updateCurrDst(46473)
updateCurrDst(46561)
updateCurrDst(46617)
updateCurrDst(46756)
updateCurrDst(46956)
updateCurrDst(47043)
updateCurrDst(47156)
updateCurrDst(47162)
updateCurrDst(47248)
Heartbeat CPU 0 instructions: 32000001 cycles: 10273206 heartbeat IPC: 3.10729 cumulative IPC: 3.1149 (Simulation time: 0 hr 3 min 9 sec) 
updateCurrDst(47658)
updateCurrDst(47927)
updateCurrDst(47990)
updateCurrDst(48041)
updateCurrDst(48174)
updateCurrDst(48481)
updateCurrDst(48514)
updateCurrDst(48530)
updateCurrDst(48572)
updateCurrDst(48612)
updateCurrDst(48644)
updateCurrDst(48655)
updateCurrDst(48662)
updateCurrDst(48673)
updateCurrDst(48970)
updateCurrDst(48981)
updateCurrDst(49030)
updateCurrDst(49110)
updateCurrDst(49137)
updateCurrDst(49341)
Heartbeat CPU 0 instructions: 33000000 cycles: 10597060 heartbeat IPC: 3.08781 cumulative IPC: 3.11407 (Simulation time: 0 hr 3 min 16 sec) 
updateCurrDst(49702)
updateCurrDst(49779)
updateCurrDst(49809)
updateCurrDst(49836)
updateCurrDst(49909)
updateCurrDst(50073)
updateCurrDst(50410)
updateCurrDst(50478)
updateCurrDst(50486)
updateCurrDst(50617)
updateCurrDst(50656)
updateCurrDst(50889)
updateCurrDst(50902)
updateCurrDst(50950)
updateCurrDst(51012)
updateCurrDst(51025)
updateCurrDst(51595)
Heartbeat CPU 0 instructions: 34000003 cycles: 10920523 heartbeat IPC: 3.09155 cumulative IPC: 3.1134 (Simulation time: 0 hr 3 min 23 sec) 
updateCurrDst(51756)
updateCurrDst(51757)
updateCurrDst(51805)
updateCurrDst(51819)
updateCurrDst(51900)
updateCurrDst(52008)
updateCurrDst(52026)
updateCurrDst(52294)
updateCurrDst(52313)
updateCurrDst(52578)
updateCurrDst(52704)
updateCurrDst(52835)
updateCurrDst(53103)
Heartbeat CPU 0 instructions: 35000002 cycles: 11235395 heartbeat IPC: 3.17589 cumulative IPC: 3.11516 (Simulation time: 0 hr 3 min 29 sec) 
updateCurrDst(53239)
updateCurrDst(53638)
updateCurrDst(53664)
updateCurrDst(53706)
updateCurrDst(53882)
updateCurrDst(53914)
updateCurrDst(53948)
updateCurrDst(53995)
updateCurrDst(54054)
updateCurrDst(54261)
updateCurrDst(54368)
updateCurrDst(54398)
updateCurrDst(54427)
Heartbeat CPU 0 instructions: 36000001 cycles: 11547958 heartbeat IPC: 3.19935 cumulative IPC: 3.11743 (Simulation time: 0 hr 3 min 36 sec) 
updateCurrDst(54652)
updateCurrDst(54857)
updateCurrDst(54907)
updateCurrDst(55132)
updateCurrDst(55190)
updateCurrDst(55353)
updateCurrDst(55393)
updateCurrDst(55849)
updateCurrDst(55882)
updateCurrDst(55968)
updateCurrDst(55977)
updateCurrDst(55980)
updateCurrDst(56072)
Heartbeat CPU 0 instructions: 37000003 cycles: 11864376 heartbeat IPC: 3.16038 cumulative IPC: 3.11858 (Simulation time: 0 hr 3 min 43 sec) 
updateCurrDst(56298)
updateCurrDst(56406)
updateCurrDst(56460)
updateCurrDst(56562)
updateCurrDst(56596)
updateCurrDst(56608)
updateCurrDst(56661)
updateCurrDst(56878)
updateCurrDst(56944)
updateCurrDst(57268)
updateCurrDst(57476)
updateCurrDst(57636)
updateCurrDst(58021)
Heartbeat CPU 0 instructions: 38000001 cycles: 12184978 heartbeat IPC: 3.11913 cumulative IPC: 3.11859 (Simulation time: 0 hr 3 min 49 sec) 
updateCurrDst(58092)
updateCurrDst(58176)
updateCurrDst(58389)
updateCurrDst(58644)
updateCurrDst(58651)
updateCurrDst(58676)
updateCurrDst(59107)
updateCurrDst(59480)
updateCurrDst(59542)
updateCurrDst(59555)
updateCurrDst(59566)
updateCurrDst(59663)
Heartbeat CPU 0 instructions: 39000000 cycles: 12502420 heartbeat IPC: 3.15018 cumulative IPC: 3.1194 (Simulation time: 0 hr 3 min 56 sec) 
updateCurrDst(59767)
updateCurrDst(59907)
updateCurrDst(59954)
updateCurrDst(60003)
updateCurrDst(60313)
updateCurrDst(60635)
updateCurrDst(60668)
updateCurrDst(60977)
updateCurrDst(61007)
updateCurrDst(61072)
updateCurrDst(61261)
updateCurrDst(61290)
updateCurrDst(61373)
updateCurrDst(61430)
updateCurrDst(61518)
updateCurrDst(61551)
updateCurrDst(61573)
Heartbeat CPU 0 instructions: 40000002 cycles: 12822365 heartbeat IPC: 3.12554 cumulative IPC: 3.11955 (Simulation time: 0 hr 4 min 3 sec) 
updateCurrDst(61722)
updateCurrDst(61789)
updateCurrDst(61803)
updateCurrDst(61832)
updateCurrDst(62029)
updateCurrDst(62086)
updateCurrDst(62105)
updateCurrDst(62181)
updateCurrDst(62210)
updateCurrDst(62412)
updateCurrDst(62493)
updateCurrDst(62510)
updateCurrDst(62598)
updateCurrDst(62606)
updateCurrDst(62679)
updateCurrDst(62780)
updateCurrDst(62963)
updateCurrDst(63028)
updateCurrDst(63121)
updateCurrDst(63135)
updateCurrDst(63224)
updateCurrDst(63545)
Heartbeat CPU 0 instructions: 41000001 cycles: 13142546 heartbeat IPC: 3.12323 cumulative IPC: 3.11964 (Simulation time: 0 hr 4 min 9 sec) 
updateCurrDst(63553)
updateCurrDst(63595)
updateCurrDst(63718)
updateCurrDst(63728)
updateCurrDst(63844)
updateCurrDst(63894)
updateCurrDst(64422)
updateCurrDst(64598)
updateCurrDst(64643)
updateCurrDst(64644)
updateCurrDst(64844)
updateCurrDst(64867)
updateCurrDst(64873)
updateCurrDst(64947)
updateCurrDst(65022)
updateCurrDst(65081)
updateCurrDst(65187)
updateCurrDst(65204)
updateCurrDst(65223)
updateCurrDst(65277)
Heartbeat CPU 0 instructions: 42000000 cycles: 13462636 heartbeat IPC: 3.12412 cumulative IPC: 3.11975 (Simulation time: 0 hr 4 min 15 sec) 
updateCurrDst(65501)
updateCurrDst(65617)
updateCurrDst(65654)
updateCurrDst(65721)
updateCurrDst(65818)
updateCurrDst(65995)
updateCurrDst(66161)
updateCurrDst(66523)
updateCurrDst(66595)
updateCurrDst(66607)
updateCurrDst(66776)
updateCurrDst(66795)
updateCurrDst(66834)
updateCurrDst(66895)
updateCurrDst(66900)
updateCurrDst(66903)
updateCurrDst(66974)
updateCurrDst(67022)
Heartbeat CPU 0 instructions: 43000001 cycles: 13778836 heartbeat IPC: 3.16256 cumulative IPC: 3.12073 (Simulation time: 0 hr 4 min 23 sec) 
updateCurrDst(67085)
updateCurrDst(67133)
updateCurrDst(68427)
updateCurrDst(68467)
updateCurrDst(68496)
updateCurrDst(68537)
updateCurrDst(68546)
Heartbeat CPU 0 instructions: 44000000 cycles: 14095354 heartbeat IPC: 3.15937 cumulative IPC: 3.1216 (Simulation time: 0 hr 4 min 29 sec) 
updateCurrDst(69149)
updateCurrDst(69241)
updateCurrDst(69253)
updateCurrDst(69300)
updateCurrDst(69404)
updateCurrDst(69580)
updateCurrDst(69645)
updateCurrDst(69749)
updateCurrDst(69761)
updateCurrDst(69802)
updateCurrDst(69810)
updateCurrDst(69973)
updateCurrDst(70010)
updateCurrDst(70022)
updateCurrDst(70049)
updateCurrDst(70193)
updateCurrDst(70228)
updateCurrDst(70291)
updateCurrDst(70316)
Heartbeat CPU 0 instructions: 45000002 cycles: 14412619 heartbeat IPC: 3.15195 cumulative IPC: 3.12226 (Simulation time: 0 hr 4 min 36 sec) 
updateCurrDst(70405)
updateCurrDst(70581)
updateCurrDst(70826)
updateCurrDst(71025)
updateCurrDst(71084)
updateCurrDst(71310)
updateCurrDst(71360)
updateCurrDst(71379)
updateCurrDst(71386)
updateCurrDst(71463)
updateCurrDst(71493)
updateCurrDst(71518)
updateCurrDst(71578)
updateCurrDst(71708)
updateCurrDst(71774)
updateCurrDst(72188)
Heartbeat CPU 0 instructions: 46000003 cycles: 14731853 heartbeat IPC: 3.1325 cumulative IPC: 3.12249 (Simulation time: 0 hr 4 min 44 sec) 
updateCurrDst(72278)
updateCurrDst(72466)
updateCurrDst(72537)
updateCurrDst(72997)
updateCurrDst(73287)
updateCurrDst(73401)
updateCurrDst(73596)
updateCurrDst(73659)
updateCurrDst(73786)
updateCurrDst(73825)
updateCurrDst(73943)
updateCurrDst(74061)
Heartbeat CPU 0 instructions: 47000003 cycles: 15052212 heartbeat IPC: 3.1215 cumulative IPC: 3.12246 (Simulation time: 0 hr 4 min 51 sec) 
updateCurrDst(74193)
updateCurrDst(74305)
updateCurrDst(74408)
updateCurrDst(74409)
updateCurrDst(74477)
updateCurrDst(74506)
updateCurrDst(74515)
updateCurrDst(74672)
updateCurrDst(74697)
updateCurrDst(74702)
updateCurrDst(74919)
updateCurrDst(74933)
updateCurrDst(75025)
updateCurrDst(75108)
updateCurrDst(75250)
updateCurrDst(75423)
updateCurrDst(75589)
updateCurrDst(75645)
updateCurrDst(75770)
Heartbeat CPU 0 instructions: 48000001 cycles: 15372359 heartbeat IPC: 3.12356 cumulative IPC: 3.12249 (Simulation time: 0 hr 4 min 57 sec) 
updateCurrDst(76449)
updateCurrDst(76516)
updateCurrDst(76735)
updateCurrDst(76846)
updateCurrDst(76878)
updateCurrDst(76904)
updateCurrDst(76998)
updateCurrDst(77011)
updateCurrDst(77256)
updateCurrDst(77284)
updateCurrDst(77378)
updateCurrDst(77393)
updateCurrDst(77400)
updateCurrDst(77432)
updateCurrDst(77573)
updateCurrDst(77621)
updateCurrDst(77831)
updateCurrDst(77912)
Heartbeat CPU 0 instructions: 49000002 cycles: 15694507 heartbeat IPC: 3.10417 cumulative IPC: 3.12211 (Simulation time: 0 hr 5 min 3 sec) 
updateCurrDst(78123)
updateCurrDst(78145)
updateCurrDst(78178)
updateCurrDst(78579)
updateCurrDst(78672)
updateCurrDst(78758)
updateCurrDst(79002)
updateCurrDst(79046)
updateCurrDst(79204)
updateCurrDst(79261)
updateCurrDst(79357)
updateCurrDst(79459)
Heartbeat CPU 0 instructions: 50000000 cycles: 16007532 heartbeat IPC: 3.19463 cumulative IPC: 3.12353 (Simulation time: 0 hr 5 min 10 sec) 
updateCurrDst(79477)
updateCurrDst(79622)
updateCurrDst(79827)
updateCurrDst(79933)
updateCurrDst(79937)
updateCurrDst(80324)
updateCurrDst(80430)
updateCurrDst(80597)
updateCurrDst(80625)
updateCurrDst(80646)
updateCurrDst(80740)
updateCurrDst(80792)
updateCurrDst(80885)
updateCurrDst(81044)
updateCurrDst(81054)
updateCurrDst(81060)
Heartbeat CPU 0 instructions: 51000003 cycles: 16324911 heartbeat IPC: 3.15082 cumulative IPC: 3.12406 (Simulation time: 0 hr 5 min 17 sec) 
updateCurrDst(81229)
updateCurrDst(81299)
updateCurrDst(81316)
updateCurrDst(81360)
updateCurrDst(81463)
updateCurrDst(81468)
updateCurrDst(81602)
updateCurrDst(81625)
updateCurrDst(81941)
updateCurrDst(81978)
updateCurrDst(82015)
updateCurrDst(82246)
updateCurrDst(82266)
updateCurrDst(82430)
updateCurrDst(82437)
updateCurrDst(82442)
updateCurrDst(82484)
updateCurrDst(82660)
updateCurrDst(82757)
Heartbeat CPU 0 instructions: 52000003 cycles: 16641672 heartbeat IPC: 3.15695 cumulative IPC: 3.12469 (Simulation time: 0 hr 5 min 23 sec) 
updateCurrDst(83165)
updateCurrDst(83675)
updateCurrDst(83964)
updateCurrDst(84019)
updateCurrDst(84045)
updateCurrDst(84059)
updateCurrDst(84147)
updateCurrDst(84182)
updateCurrDst(84292)
updateCurrDst(84359)
updateCurrDst(84380)
updateCurrDst(84466)
updateCurrDst(84479)
updateCurrDst(84522)
updateCurrDst(84523)
updateCurrDst(84557)
updateCurrDst(84756)
updateCurrDst(84787)
updateCurrDst(84840)
updateCurrDst(84860)
Heartbeat CPU 0 instructions: 53000002 cycles: 16964331 heartbeat IPC: 3.09924 cumulative IPC: 3.1242 (Simulation time: 0 hr 5 min 29 sec) 
updateCurrDst(84894)
updateCurrDst(84997)
updateCurrDst(85085)
updateCurrDst(85106)
updateCurrDst(85141)
updateCurrDst(85255)
updateCurrDst(85272)
updateCurrDst(85410)
updateCurrDst(85682)
updateCurrDst(85797)
updateCurrDst(85839)
updateCurrDst(85869)
updateCurrDst(85992)
updateCurrDst(86028)
updateCurrDst(86066)
updateCurrDst(86078)
updateCurrDst(86134)
updateCurrDst(86292)
updateCurrDst(86302)
updateCurrDst(86484)
updateCurrDst(86498)
updateCurrDst(86539)
Heartbeat CPU 0 instructions: 54000001 cycles: 17282781 heartbeat IPC: 3.14021 cumulative IPC: 3.1245 (Simulation time: 0 hr 5 min 36 sec) 
updateCurrDst(86662)
updateCurrDst(86757)
updateCurrDst(86886)
updateCurrDst(86889)
updateCurrDst(86922)
updateCurrDst(86967)
updateCurrDst(87561)
updateCurrDst(87610)
updateCurrDst(87703)
updateCurrDst(87993)
Heartbeat CPU 0 instructions: 55000000 cycles: 17600287 heartbeat IPC: 3.14954 cumulative IPC: 3.12495 (Simulation time: 0 hr 5 min 42 sec) 
updateCurrDst(88356)
updateCurrDst(88433)
updateCurrDst(88884)
updateCurrDst(88904)
updateCurrDst(88949)
updateCurrDst(88950)
updateCurrDst(88990)
updateCurrDst(89017)
updateCurrDst(89135)
updateCurrDst(89144)
updateCurrDst(89188)
updateCurrDst(89242)
updateCurrDst(89281)
updateCurrDst(89284)
updateCurrDst(89337)
updateCurrDst(89358)
updateCurrDst(89536)
updateCurrDst(89561)
updateCurrDst(89611)
updateCurrDst(89628)
updateCurrDst(89648)
updateCurrDst(89680)
updateCurrDst(89998)
updateCurrDst(90181)
updateCurrDst(90227)
updateCurrDst(90255)
Heartbeat CPU 0 instructions: 56000001 cycles: 17921170 heartbeat IPC: 3.1164 cumulative IPC: 3.1248 (Simulation time: 0 hr 5 min 48 sec) 
updateCurrDst(90556)
updateCurrDst(90616)
updateCurrDst(90641)
updateCurrDst(90814)
updateCurrDst(90819)
updateCurrDst(90974)
updateCurrDst(91037)
updateCurrDst(91179)
updateCurrDst(91573)
updateCurrDst(91657)
updateCurrDst(91721)
updateCurrDst(91741)
updateCurrDst(91813)
updateCurrDst(91867)
updateCurrDst(92120)
updateCurrDst(92208)
updateCurrDst(92398)
Heartbeat CPU 0 instructions: 57000000 cycles: 18244863 heartbeat IPC: 3.08934 cumulative IPC: 3.12417 (Simulation time: 0 hr 5 min 55 sec) 
updateCurrDst(92742)
updateCurrDst(93142)
updateCurrDst(93158)
updateCurrDst(93285)
updateCurrDst(93574)
updateCurrDst(93671)
updateCurrDst(93683)
updateCurrDst(93865)
updateCurrDst(94019)
updateCurrDst(94055)
updateCurrDst(94132)
updateCurrDst(94138)
updateCurrDst(94178)
updateCurrDst(94228)
updateCurrDst(94238)
updateCurrDst(94377)
updateCurrDst(94385)
updateCurrDst(94400)
Heartbeat CPU 0 instructions: 58000000 cycles: 18566173 heartbeat IPC: 3.11226 cumulative IPC: 3.12396 (Simulation time: 0 hr 6 min 1 sec) 
updateCurrDst(94628)
updateCurrDst(94735)
updateCurrDst(94736)
updateCurrDst(94769)
updateCurrDst(94794)
updateCurrDst(94928)
updateCurrDst(94980)
updateCurrDst(95059)
updateCurrDst(95196)
updateCurrDst(95338)
updateCurrDst(95568)
updateCurrDst(95672)
updateCurrDst(95689)
updateCurrDst(95730)
updateCurrDst(95755)
updateCurrDst(95774)
updateCurrDst(95909)
updateCurrDst(95962)
updateCurrDst(95994)
updateCurrDst(96012)
Heartbeat CPU 0 instructions: 59000000 cycles: 18882663 heartbeat IPC: 3.15966 cumulative IPC: 3.12456 (Simulation time: 0 hr 6 min 7 sec) 
updateCurrDst(96396)
updateCurrDst(96397)
updateCurrDst(96429)
updateCurrDst(96446)
updateCurrDst(96566)
updateCurrDst(96594)
updateCurrDst(96655)
updateCurrDst(96686)
updateCurrDst(96751)
updateCurrDst(96810)
updateCurrDst(96813)
updateCurrDst(96906)
updateCurrDst(97143)
updateCurrDst(97253)
updateCurrDst(97306)
updateCurrDst(97395)
updateCurrDst(97434)
updateCurrDst(97451)
updateCurrDst(97588)
updateCurrDst(97611)
updateCurrDst(97839)
updateCurrDst(97873)
updateCurrDst(98022)
Heartbeat CPU 0 instructions: 60000000 cycles: 19203237 heartbeat IPC: 3.1194 cumulative IPC: 3.12447 (Simulation time: 0 hr 6 min 13 sec) 
updateCurrDst(98036)
updateCurrDst(98140)
updateCurrDst(98176)
updateCurrDst(98196)
updateCurrDst(98210)
updateCurrDst(98263)
updateCurrDst(98266)
updateCurrDst(98400)
updateCurrDst(98587)
updateCurrDst(98942)
updateCurrDst(99128)
updateCurrDst(99270)
Heartbeat CPU 0 instructions: 61000003 cycles: 19520609 heartbeat IPC: 3.15089 cumulative IPC: 3.1249 (Simulation time: 0 hr 6 min 18 sec) 
updateCurrDst(99867)
updateCurrDst(99888)
updateCurrDst(100005)
updateCurrDst(100018)
updateCurrDst(100106)
updateCurrDst(100132)
updateCurrDst(100140)
updateCurrDst(100321)
updateCurrDst(100326)
updateCurrDst(100391)
updateCurrDst(100431)
updateCurrDst(100731)
updateCurrDst(100983)
updateCurrDst(100994)
updateCurrDst(100996)
updateCurrDst(101017)
updateCurrDst(101044)
updateCurrDst(101056)
updateCurrDst(101167)
updateCurrDst(101294)
Heartbeat CPU 0 instructions: 62000000 cycles: 19837413 heartbeat IPC: 3.15652 cumulative IPC: 3.12541 (Simulation time: 0 hr 6 min 24 sec) 
updateCurrDst(101510)
updateCurrDst(101545)
updateCurrDst(101612)
updateCurrDst(102151)
updateCurrDst(102200)
updateCurrDst(102227)
updateCurrDst(102717)
updateCurrDst(102764)
updateCurrDst(102876)
updateCurrDst(102916)
updateCurrDst(102922)
updateCurrDst(103001)
updateCurrDst(103154)
updateCurrDst(103159)
updateCurrDst(103185)
Heartbeat CPU 0 instructions: 63000003 cycles: 20157677 heartbeat IPC: 3.12243 cumulative IPC: 3.12536 (Simulation time: 0 hr 6 min 30 sec) 
updateCurrDst(103335)
updateCurrDst(103342)
updateCurrDst(103366)
updateCurrDst(103574)
updateCurrDst(103618)
updateCurrDst(103740)
updateCurrDst(103852)
updateCurrDst(103923)
updateCurrDst(103973)
updateCurrDst(104204)
updateCurrDst(104216)
updateCurrDst(104251)
updateCurrDst(104394)
updateCurrDst(104705)
updateCurrDst(104760)
Heartbeat CPU 0 instructions: 64000003 cycles: 20471711 heartbeat IPC: 3.18437 cumulative IPC: 3.12627 (Simulation time: 0 hr 6 min 37 sec) 
updateCurrDst(104801)
updateCurrDst(104844)
updateCurrDst(104868)
updateCurrDst(104878)
updateCurrDst(104905)
updateCurrDst(105052)
updateCurrDst(105164)
updateCurrDst(105168)
updateCurrDst(105287)
updateCurrDst(105514)
updateCurrDst(105533)
updateCurrDst(105680)
updateCurrDst(105722)
updateCurrDst(105766)
updateCurrDst(105797)
updateCurrDst(105994)
updateCurrDst(106028)
updateCurrDst(106139)
updateCurrDst(106152)
updateCurrDst(106212)
updateCurrDst(106238)
updateCurrDst(106364)
updateCurrDst(106655)
Heartbeat CPU 0 instructions: 65000000 cycles: 20791750 heartbeat IPC: 3.12461 cumulative IPC: 3.12624 (Simulation time: 0 hr 6 min 43 sec) 
updateCurrDst(106776)
updateCurrDst(106796)
updateCurrDst(106829)
updateCurrDst(106900)
updateCurrDst(107017)
updateCurrDst(107195)
updateCurrDst(107212)
updateCurrDst(107312)
updateCurrDst(107373)
updateCurrDst(107493)
updateCurrDst(107614)
updateCurrDst(108208)
updateCurrDst(108229)
updateCurrDst(108234)
updateCurrDst(108258)
updateCurrDst(108460)
updateCurrDst(108550)
updateCurrDst(108595)
updateCurrDst(108614)
Heartbeat CPU 0 instructions: 66000000 cycles: 21112684 heartbeat IPC: 3.11591 cumulative IPC: 3.12608 (Simulation time: 0 hr 6 min 50 sec) 
updateCurrDst(108895)
updateCurrDst(109027)
updateCurrDst(109036)
updateCurrDst(109325)
updateCurrDst(109465)
updateCurrDst(109964)
updateCurrDst(110027)
updateCurrDst(110049)
updateCurrDst(110092)
updateCurrDst(110128)
updateCurrDst(110185)
updateCurrDst(110246)
updateCurrDst(110357)
updateCurrDst(110457)
updateCurrDst(110475)
updateCurrDst(110491)
updateCurrDst(110551)
updateCurrDst(110571)
Heartbeat CPU 0 instructions: 67000002 cycles: 21434071 heartbeat IPC: 3.11152 cumulative IPC: 3.12586 (Simulation time: 0 hr 6 min 55 sec) 
updateCurrDst(110652)
updateCurrDst(110741)
updateCurrDst(110862)
updateCurrDst(111001)
updateCurrDst(111057)
updateCurrDst(111579)
updateCurrDst(111728)
updateCurrDst(111764)
updateCurrDst(111797)
updateCurrDst(111876)
updateCurrDst(111928)
updateCurrDst(112015)
updateCurrDst(112175)
updateCurrDst(112300)
updateCurrDst(112371)
updateCurrDst(112501)
Heartbeat CPU 0 instructions: 68000000 cycles: 21754361 heartbeat IPC: 3.12216 cumulative IPC: 3.12581 (Simulation time: 0 hr 7 min 1 sec) 
updateCurrDst(112555)
updateCurrDst(112695)
updateCurrDst(112702)
updateCurrDst(113322)
updateCurrDst(113351)
updateCurrDst(113393)
updateCurrDst(113422)
updateCurrDst(113423)
updateCurrDst(113547)
updateCurrDst(113550)
updateCurrDst(113603)
updateCurrDst(113609)
updateCurrDst(113907)
updateCurrDst(114065)
updateCurrDst(114284)
updateCurrDst(114319)
Heartbeat CPU 0 instructions: 69000000 cycles: 22073766 heartbeat IPC: 3.13082 cumulative IPC: 3.12588 (Simulation time: 0 hr 7 min 8 sec) 
updateCurrDst(114453)
updateCurrDst(114540)
updateCurrDst(114596)
updateCurrDst(114604)
updateCurrDst(114613)
updateCurrDst(114626)
updateCurrDst(114823)
updateCurrDst(114948)
updateCurrDst(114977)
updateCurrDst(115293)
updateCurrDst(115345)
updateCurrDst(115408)
updateCurrDst(115704)
updateCurrDst(115717)
updateCurrDst(115813)
Heartbeat CPU 0 instructions: 70000003 cycles: 22391823 heartbeat IPC: 3.1441 cumulative IPC: 3.12614 (Simulation time: 0 hr 7 min 15 sec) 
updateCurrDst(116199)
updateCurrDst(116215)
updateCurrDst(116220)
updateCurrDst(116223)
updateCurrDst(116375)
updateCurrDst(116386)
updateCurrDst(116509)
updateCurrDst(116698)
updateCurrDst(116818)
updateCurrDst(116838)
updateCurrDst(116909)
updateCurrDst(117168)
updateCurrDst(117174)
updateCurrDst(117215)
updateCurrDst(117262)
updateCurrDst(117341)
updateCurrDst(117400)
updateCurrDst(117694)
updateCurrDst(117857)
updateCurrDst(117886)
updateCurrDst(117889)
updateCurrDst(117906)
updateCurrDst(117926)
updateCurrDst(117929)
updateCurrDst(117969)
updateCurrDst(117982)
Heartbeat CPU 0 instructions: 71000001 cycles: 22711148 heartbeat IPC: 3.1316 cumulative IPC: 3.12622 (Simulation time: 0 hr 7 min 22 sec) 
updateCurrDst(117995)
updateCurrDst(118259)
updateCurrDst(118326)
updateCurrDst(118441)
updateCurrDst(118601)
updateCurrDst(118627)
updateCurrDst(118701)
updateCurrDst(118834)
updateCurrDst(118871)
updateCurrDst(118996)
updateCurrDst(119072)
updateCurrDst(119198)
updateCurrDst(119304)
updateCurrDst(119452)
updateCurrDst(119463)
updateCurrDst(119465)
updateCurrDst(119547)
updateCurrDst(119561)
updateCurrDst(119569)
updateCurrDst(119612)
updateCurrDst(119655)
updateCurrDst(119726)
Heartbeat CPU 0 instructions: 72000002 cycles: 23030192 heartbeat IPC: 3.13437 cumulative IPC: 3.12633 (Simulation time: 0 hr 7 min 28 sec) 
updateCurrDst(119898)
updateCurrDst(120019)
updateCurrDst(120042)
updateCurrDst(120183)
updateCurrDst(120334)
updateCurrDst(120359)
updateCurrDst(120458)
updateCurrDst(120503)
updateCurrDst(120563)
updateCurrDst(120759)
updateCurrDst(120907)
updateCurrDst(120935)
updateCurrDst(120978)
updateCurrDst(121105)
updateCurrDst(121160)
updateCurrDst(121262)
updateCurrDst(121362)
updateCurrDst(121366)
updateCurrDst(121402)
updateCurrDst(121449)
updateCurrDst(121456)
Heartbeat CPU 0 instructions: 73000003 cycles: 23347369 heartbeat IPC: 3.15282 cumulative IPC: 3.12669 (Simulation time: 0 hr 7 min 36 sec) 
updateCurrDst(121563)
updateCurrDst(121592)
updateCurrDst(121710)
updateCurrDst(121737)
updateCurrDst(121854)
updateCurrDst(121911)
updateCurrDst(121974)
updateCurrDst(122104)
updateCurrDst(122159)
updateCurrDst(122180)
updateCurrDst(122263)
updateCurrDst(122562)
updateCurrDst(122684)
updateCurrDst(122727)
updateCurrDst(122738)
updateCurrDst(122828)
updateCurrDst(122840)
updateCurrDst(123032)
updateCurrDst(123065)
updateCurrDst(123084)
updateCurrDst(123121)
Heartbeat CPU 0 instructions: 74000001 cycles: 23665680 heartbeat IPC: 3.14158 cumulative IPC: 3.12689 (Simulation time: 0 hr 7 min 42 sec) 
updateCurrDst(123275)
updateCurrDst(123581)
updateCurrDst(123590)
updateCurrDst(123630)
updateCurrDst(123647)
updateCurrDst(123927)
updateCurrDst(123996)
updateCurrDst(124075)
updateCurrDst(124161)
updateCurrDst(124331)
updateCurrDst(124400)
updateCurrDst(124705)
updateCurrDst(124767)
updateCurrDst(124769)
updateCurrDst(124775)
Heartbeat CPU 0 instructions: 75000001 cycles: 23982971 heartbeat IPC: 3.15168 cumulative IPC: 3.12722 (Simulation time: 0 hr 7 min 50 sec) 

Warmup complete CPU 0 instructions: 75000001 cycles: 23982971 (Simulation time: 0 hr 7 min 50 sec) 

updateCurrDst(125102)
updateCurrDst(125187)
updateCurrDst(125490)
updateCurrDst(125615)
updateCurrDst(125708)
updateCurrDst(125824)
updateCurrDst(125841)
updateCurrDst(125845)
updateCurrDst(125942)
updateCurrDst(126044)
updateCurrDst(126046)
updateCurrDst(126113)
updateCurrDst(126160)
updateCurrDst(126203)
updateCurrDst(126454)
updateCurrDst(126668)
Heartbeat CPU 0 instructions: 76000001 cycles: 27079463 heartbeat IPC: 0.322946 cumulative IPC: 0.322946 (Simulation time: 0 hr 7 min 58 sec) 
updateCurrDst(126818)
updateCurrDst(127074)
updateCurrDst(127253)
updateCurrDst(127276)
updateCurrDst(127303)
updateCurrDst(127782)
updateCurrDst(127794)
updateCurrDst(127802)
updateCurrDst(127854)
updateCurrDst(127946)
updateCurrDst(127991)
updateCurrDst(128041)
updateCurrDst(128243)
updateCurrDst(128274)
updateCurrDst(128336)
updateCurrDst(128353)
Heartbeat CPU 0 instructions: 77000000 cycles: 30196828 heartbeat IPC: 0.320783 cumulative IPC: 0.321861 (Simulation time: 0 hr 8 min 6 sec) 
updateCurrDst(128531)
updateCurrDst(128605)
updateCurrDst(128684)
updateCurrDst(128705)
updateCurrDst(128728)
updateCurrDst(128857)
updateCurrDst(129053)
updateCurrDst(129228)
updateCurrDst(129283)
updateCurrDst(129396)
updateCurrDst(129405)
updateCurrDst(129575)
updateCurrDst(129673)
updateCurrDst(129804)
updateCurrDst(129913)
updateCurrDst(129977)
Heartbeat CPU 0 instructions: 78000001 cycles: 33288021 heartbeat IPC: 0.3235 cumulative IPC: 0.322406 (Simulation time: 0 hr 8 min 13 sec) 
updateCurrDst(130589)
updateCurrDst(130890)
updateCurrDst(130904)
updateCurrDst(130960)
updateCurrDst(131167)
updateCurrDst(131194)
updateCurrDst(131471)
updateCurrDst(131700)
updateCurrDst(131761)
updateCurrDst(131818)
Heartbeat CPU 0 instructions: 79000000 cycles: 36396735 heartbeat IPC: 0.321676 cumulative IPC: 0.322223 (Simulation time: 0 hr 8 min 20 sec) 
updateCurrDst(131944)
updateCurrDst(132381)
updateCurrDst(132400)
updateCurrDst(132475)
updateCurrDst(132483)
updateCurrDst(132527)
updateCurrDst(132536)
updateCurrDst(132591)
updateCurrDst(132771)
updateCurrDst(132781)
updateCurrDst(132930)
updateCurrDst(132962)
updateCurrDst(133032)
updateCurrDst(133051)
updateCurrDst(133120)
updateCurrDst(133134)
updateCurrDst(133145)
updateCurrDst(133160)
updateCurrDst(133196)
updateCurrDst(133359)
updateCurrDst(133618)
Heartbeat CPU 0 instructions: 80000000 cycles: 39514093 heartbeat IPC: 0.320784 cumulative IPC: 0.321934 (Simulation time: 0 hr 8 min 29 sec) 
updateCurrDst(133860)
updateCurrDst(133986)
updateCurrDst(134227)
updateCurrDst(134262)
updateCurrDst(134310)
updateCurrDst(134322)
updateCurrDst(134344)
updateCurrDst(134351)
updateCurrDst(134489)
updateCurrDst(134527)
updateCurrDst(134578)
updateCurrDst(134680)
updateCurrDst(134751)
updateCurrDst(134810)
updateCurrDst(134824)
updateCurrDst(135005)
updateCurrDst(135007)
updateCurrDst(135107)
updateCurrDst(135127)
Heartbeat CPU 0 instructions: 81000002 cycles: 42618749 heartbeat IPC: 0.322098 cumulative IPC: 0.321961 (Simulation time: 0 hr 8 min 36 sec) 
updateCurrDst(135496)
updateCurrDst(135587)
updateCurrDst(135664)
updateCurrDst(135676)
updateCurrDst(135841)
updateCurrDst(135847)
updateCurrDst(136181)
updateCurrDst(136274)
updateCurrDst(136522)
updateCurrDst(136609)
updateCurrDst(136707)
updateCurrDst(136763)
updateCurrDst(136935)
Heartbeat CPU 0 instructions: 82000001 cycles: 45723116 heartbeat IPC: 0.322127 cumulative IPC: 0.321985 (Simulation time: 0 hr 8 min 43 sec) 
updateCurrDst(137022)
updateCurrDst(137061)
updateCurrDst(137102)
updateCurrDst(137136)
updateCurrDst(137295)
updateCurrDst(137314)
updateCurrDst(137384)
updateCurrDst(137418)
updateCurrDst(137524)
updateCurrDst(137535)
updateCurrDst(137785)
updateCurrDst(137841)
updateCurrDst(137864)
updateCurrDst(137898)
updateCurrDst(137905)
updateCurrDst(138086)
updateCurrDst(138297)
updateCurrDst(138309)
updateCurrDst(138419)
updateCurrDst(138625)
updateCurrDst(138812)
updateCurrDst(138874)
Heartbeat CPU 0 instructions: 83000001 cycles: 48813062 heartbeat IPC: 0.32363 cumulative IPC: 0.32219 (Simulation time: 0 hr 8 min 50 sec) 
updateCurrDst(139261)
updateCurrDst(139402)
updateCurrDst(139407)
updateCurrDst(139410)
updateCurrDst(139511)
updateCurrDst(139666)
updateCurrDst(139728)
updateCurrDst(139901)
updateCurrDst(139902)
updateCurrDst(139945)
updateCurrDst(139948)
updateCurrDst(140309)
updateCurrDst(140357)
updateCurrDst(140364)
updateCurrDst(140414)
updateCurrDst(140772)
updateCurrDst(140825)
updateCurrDst(140951)
updateCurrDst(140994)
updateCurrDst(141121)
Heartbeat CPU 0 instructions: 84000000 cycles: 51890077 heartbeat IPC: 0.32499 cumulative IPC: 0.322498 (Simulation time: 0 hr 8 min 57 sec) 
updateCurrDst(141213)
updateCurrDst(141262)
updateCurrDst(141371)
updateCurrDst(141412)
updateCurrDst(141466)
updateCurrDst(141590)
updateCurrDst(141911)
updateCurrDst(142204)
updateCurrDst(142266)
updateCurrDst(142496)
updateCurrDst(142518)
updateCurrDst(142676)
updateCurrDst(142742)
updateCurrDst(142801)
updateCurrDst(142806)
updateCurrDst(142820)
updateCurrDst(142881)
updateCurrDst(142884)
Heartbeat CPU 0 instructions: 85000000 cycles: 54996243 heartbeat IPC: 0.32194 cumulative IPC: 0.322443 (Simulation time: 0 hr 9 min 4 sec) 
updateCurrDst(143064)
updateCurrDst(143093)
updateCurrDst(143294)
updateCurrDst(143374)
updateCurrDst(143428)
updateCurrDst(143477)
updateCurrDst(143494)
updateCurrDst(143708)
updateCurrDst(143771)
updateCurrDst(143846)
updateCurrDst(143917)
updateCurrDst(143987)
updateCurrDst(144093)
updateCurrDst(144105)
updateCurrDst(144130)
updateCurrDst(144257)
updateCurrDst(144376)
updateCurrDst(144447)
Heartbeat CPU 0 instructions: 86000000 cycles: 58094785 heartbeat IPC: 0.322732 cumulative IPC: 0.322469 (Simulation time: 0 hr 9 min 11 sec) 
updateCurrDst(144607)
updateCurrDst(144897)
updateCurrDst(144899)
updateCurrDst(144909)
updateCurrDst(144971)
updateCurrDst(145069)
updateCurrDst(145350)
updateCurrDst(145424)
updateCurrDst(145480)
updateCurrDst(145874)
updateCurrDst(145902)
updateCurrDst(145982)
updateCurrDst(146129)
updateCurrDst(146172)
updateCurrDst(146196)
Heartbeat CPU 0 instructions: 87000000 cycles: 61188156 heartbeat IPC: 0.323272 cumulative IPC: 0.322536 (Simulation time: 0 hr 9 min 19 sec) 
updateCurrDst(146530)
updateCurrDst(146579)
updateCurrDst(146701)
updateCurrDst(146733)
updateCurrDst(146768)
updateCurrDst(146903)
updateCurrDst(147013)
updateCurrDst(147026)
updateCurrDst(147170)
updateCurrDst(147471)
updateCurrDst(147584)
updateCurrDst(147745)
updateCurrDst(147781)
updateCurrDst(147846)
updateCurrDst(147880)
updateCurrDst(147943)
updateCurrDst(148055)
updateCurrDst(148064)
updateCurrDst(148193)
Heartbeat CPU 0 instructions: 88000000 cycles: 64266991 heartbeat IPC: 0.324798 cumulative IPC: 0.322709 (Simulation time: 0 hr 9 min 27 sec) 
updateCurrDst(148433)
updateCurrDst(148444)
updateCurrDst(148470)
updateCurrDst(148509)
updateCurrDst(148804)
updateCurrDst(148963)
updateCurrDst(149010)
updateCurrDst(149250)
updateCurrDst(149267)
updateCurrDst(149305)
updateCurrDst(149349)
updateCurrDst(149350)
updateCurrDst(149420)
updateCurrDst(149441)
updateCurrDst(149482)
updateCurrDst(149811)
updateCurrDst(149885)
Heartbeat CPU 0 instructions: 89000002 cycles: 67367638 heartbeat IPC: 0.322514 cumulative IPC: 0.322695 (Simulation time: 0 hr 9 min 34 sec) 
updateCurrDst(150106)
updateCurrDst(150132)
updateCurrDst(150417)
updateCurrDst(150432)
updateCurrDst(150466)
updateCurrDst(150596)
updateCurrDst(150600)
updateCurrDst(150719)
updateCurrDst(150874)
updateCurrDst(150898)
updateCurrDst(151010)
updateCurrDst(151170)
updateCurrDst(151312)
updateCurrDst(151421)
updateCurrDst(151533)
updateCurrDst(151596)
updateCurrDst(151699)
updateCurrDst(151782)
updateCurrDst(151793)
updateCurrDst(151893)
updateCurrDst(151907)
updateCurrDst(151996)
updateCurrDst(152084)
updateCurrDst(152097)
Heartbeat CPU 0 instructions: 90000000 cycles: 70441156 heartbeat IPC: 0.325359 cumulative IPC: 0.322871 (Simulation time: 0 hr 9 min 41 sec) 
updateCurrDst(152202)
updateCurrDst(152242)
updateCurrDst(152360)
updateCurrDst(152370)
updateCurrDst(152659)
updateCurrDst(152896)
updateCurrDst(153064)
updateCurrDst(153130)
updateCurrDst(153138)
updateCurrDst(153198)
updateCurrDst(153201)
updateCurrDst(153239)
updateCurrDst(153441)
updateCurrDst(153496)
updateCurrDst(153514)
updateCurrDst(153589)
updateCurrDst(153757)
Heartbeat CPU 0 instructions: 91000001 cycles: 73538758 heartbeat IPC: 0.322831 cumulative IPC: 0.322868 (Simulation time: 0 hr 9 min 48 sec) 
updateCurrDst(153921)
updateCurrDst(153932)
updateCurrDst(153962)
updateCurrDst(154050)
updateCurrDst(154071)
updateCurrDst(154202)
updateCurrDst(154413)
updateCurrDst(154695)
updateCurrDst(154708)
updateCurrDst(154739)
updateCurrDst(154772)
updateCurrDst(154996)
updateCurrDst(155002)
updateCurrDst(155023)
updateCurrDst(155121)
updateCurrDst(155292)
updateCurrDst(155336)
updateCurrDst(155350)
updateCurrDst(155353)
Heartbeat CPU 0 instructions: 92000000 cycles: 76644251 heartbeat IPC: 0.32201 cumulative IPC: 0.322818 (Simulation time: 0 hr 9 min 55 sec) 
updateCurrDst(155830)
updateCurrDst(156061)
updateCurrDst(156151)
updateCurrDst(156197)
updateCurrDst(156259)
updateCurrDst(156376)
updateCurrDst(156464)
updateCurrDst(156531)
updateCurrDst(156686)
updateCurrDst(156775)
updateCurrDst(156837)
updateCurrDst(156936)
updateCurrDst(157027)
updateCurrDst(157059)
updateCurrDst(157112)
updateCurrDst(157148)
Heartbeat CPU 0 instructions: 93000000 cycles: 79742301 heartbeat IPC: 0.322784 cumulative IPC: 0.322816 (Simulation time: 0 hr 10 min 2 sec) 
updateCurrDst(157312)
updateCurrDst(157314)
updateCurrDst(157480)
updateCurrDst(157649)
updateCurrDst(157703)
updateCurrDst(157786)
updateCurrDst(157806)
updateCurrDst(157962)
updateCurrDst(158013)
updateCurrDst(158079)
updateCurrDst(158102)
updateCurrDst(158120)
updateCurrDst(158131)
updateCurrDst(158233)
updateCurrDst(158310)
updateCurrDst(158316)
updateCurrDst(158322)
updateCurrDst(158353)
updateCurrDst(158364)
updateCurrDst(158371)
updateCurrDst(158613)
updateCurrDst(158862)
Heartbeat CPU 0 instructions: 94000000 cycles: 82848606 heartbeat IPC: 0.321926 cumulative IPC: 0.322769 (Simulation time: 0 hr 10 min 8 sec) 
updateCurrDst(158944)
updateCurrDst(158948)
updateCurrDst(158950)
updateCurrDst(159164)
updateCurrDst(159222)
updateCurrDst(159358)
updateCurrDst(159396)
updateCurrDst(159470)
updateCurrDst(159566)
updateCurrDst(160007)
updateCurrDst(160036)
updateCurrDst(160059)
updateCurrDst(160074)
updateCurrDst(160228)
updateCurrDst(160328)
updateCurrDst(160408)
updateCurrDst(160482)
updateCurrDst(160525)
updateCurrDst(160555)
updateCurrDst(160577)
updateCurrDst(160778)
Heartbeat CPU 0 instructions: 95000001 cycles: 85921686 heartbeat IPC: 0.325407 cumulative IPC: 0.3229 (Simulation time: 0 hr 10 min 15 sec) 
updateCurrDst(160985)
updateCurrDst(161175)
updateCurrDst(161424)
updateCurrDst(161496)
updateCurrDst(161609)
updateCurrDst(161643)
updateCurrDst(161653)
updateCurrDst(161749)
updateCurrDst(161767)
updateCurrDst(161825)
updateCurrDst(161830)
updateCurrDst(161839)
updateCurrDst(161881)
updateCurrDst(161916)
updateCurrDst(161950)
updateCurrDst(162057)
updateCurrDst(162314)
updateCurrDst(162445)
updateCurrDst(162554)
updateCurrDst(162712)
Heartbeat CPU 0 instructions: 96000000 cycles: 89024228 heartbeat IPC: 0.322316 cumulative IPC: 0.322872 (Simulation time: 0 hr 10 min 23 sec) 
updateCurrDst(162816)
updateCurrDst(162842)
updateCurrDst(162897)
updateCurrDst(163036)
updateCurrDst(163046)
updateCurrDst(163334)
updateCurrDst(163628)
updateCurrDst(163738)
updateCurrDst(163797)
updateCurrDst(163807)
updateCurrDst(163953)
updateCurrDst(164011)
updateCurrDst(164099)
updateCurrDst(164200)
Heartbeat CPU 0 instructions: 97000001 cycles: 92138047 heartbeat IPC: 0.321149 cumulative IPC: 0.322793 (Simulation time: 0 hr 10 min 30 sec) 
updateCurrDst(164442)
updateCurrDst(164547)
updateCurrDst(164852)
updateCurrDst(165142)
updateCurrDst(165331)
updateCurrDst(165490)
updateCurrDst(165549)
updateCurrDst(165664)
updateCurrDst(165790)
updateCurrDst(165844)
updateCurrDst(165913)
updateCurrDst(165924)
updateCurrDst(165996)
updateCurrDst(166071)
updateCurrDst(166165)
Heartbeat CPU 0 instructions: 98000000 cycles: 95225957 heartbeat IPC: 0.323843 cumulative IPC: 0.322839 (Simulation time: 0 hr 10 min 37 sec) 
updateCurrDst(166246)
updateCurrDst(166322)
updateCurrDst(166324)
updateCurrDst(166448)
updateCurrDst(166676)
updateCurrDst(166697)
updateCurrDst(166834)
updateCurrDst(166931)
updateCurrDst(166939)
updateCurrDst(167051)
updateCurrDst(167052)
updateCurrDst(167112)
updateCurrDst(167222)
updateCurrDst(167293)
updateCurrDst(167301)
updateCurrDst(167553)
updateCurrDst(167576)
Heartbeat CPU 0 instructions: 99000000 cycles: 98339023 heartbeat IPC: 0.321227 cumulative IPC: 0.322771 (Simulation time: 0 hr 10 min 44 sec) 
updateCurrDst(167668)
updateCurrDst(167705)
updateCurrDst(167712)
updateCurrDst(167720)
updateCurrDst(167859)
updateCurrDst(167944)
updateCurrDst(168145)
updateCurrDst(168163)
updateCurrDst(168194)
updateCurrDst(168300)
updateCurrDst(168498)
updateCurrDst(168537)
updateCurrDst(168704)
updateCurrDst(168781)
updateCurrDst(168790)
updateCurrDst(169009)
updateCurrDst(169071)
updateCurrDst(169089)
updateCurrDst(169198)
updateCurrDst(169200)
Heartbeat CPU 0 instructions: 100000001 cycles: 101435724 heartbeat IPC: 0.322925 cumulative IPC: 0.322777 (Simulation time: 0 hr 10 min 51 sec) 
updateCurrDst(169298)
updateCurrDst(169392)
updateCurrDst(169463)
updateCurrDst(169791)
updateCurrDst(170035)
updateCurrDst(170186)
updateCurrDst(170205)
updateCurrDst(170377)
updateCurrDst(170580)
updateCurrDst(170671)
Heartbeat CPU 0 instructions: 101000001 cycles: 104543339 heartbeat IPC: 0.32179 cumulative IPC: 0.322739 (Simulation time: 0 hr 10 min 58 sec) 
updateCurrDst(171100)
updateCurrDst(171157)
updateCurrDst(171273)
updateCurrDst(171485)
updateCurrDst(171642)
updateCurrDst(171656)
updateCurrDst(171771)
updateCurrDst(172064)
updateCurrDst(172089)
updateCurrDst(172173)
updateCurrDst(172271)
updateCurrDst(172324)
updateCurrDst(172338)
updateCurrDst(172513)
updateCurrDst(172529)
updateCurrDst(172587)
updateCurrDst(172641)
Heartbeat CPU 0 instructions: 102000001 cycles: 107646127 heartbeat IPC: 0.322291 cumulative IPC: 0.322723 (Simulation time: 0 hr 11 min 6 sec) 
updateCurrDst(172678)
updateCurrDst(172689)
updateCurrDst(172911)
updateCurrDst(172969)
updateCurrDst(173198)
updateCurrDst(173379)
updateCurrDst(173437)
updateCurrDst(173475)
updateCurrDst(173496)
updateCurrDst(173508)
updateCurrDst(173766)
updateCurrDst(173785)
updateCurrDst(173885)
updateCurrDst(173918)
updateCurrDst(173946)
updateCurrDst(174051)
updateCurrDst(174297)
updateCurrDst(174324)
updateCurrDst(174419)
Heartbeat CPU 0 instructions: 103000002 cycles: 110751814 heartbeat IPC: 0.32199 cumulative IPC: 0.322696 (Simulation time: 0 hr 11 min 13 sec) 
updateCurrDst(174646)
updateCurrDst(174704)
updateCurrDst(174954)
updateCurrDst(175003)
updateCurrDst(175099)
updateCurrDst(175237)
updateCurrDst(175254)
updateCurrDst(175430)
updateCurrDst(175637)
updateCurrDst(175643)
updateCurrDst(175691)
updateCurrDst(175857)
updateCurrDst(175965)
updateCurrDst(175994)
Heartbeat CPU 0 instructions: 104000000 cycles: 113853788 heartbeat IPC: 0.322375 cumulative IPC: 0.322685 (Simulation time: 0 hr 11 min 20 sec) 
updateCurrDst(176165)
updateCurrDst(176166)
updateCurrDst(176275)
updateCurrDst(176296)
updateCurrDst(176378)
updateCurrDst(176516)
updateCurrDst(176754)
updateCurrDst(176880)
updateCurrDst(177085)
updateCurrDst(177239)
updateCurrDst(177260)
updateCurrDst(177284)
updateCurrDst(177297)
updateCurrDst(177313)
updateCurrDst(177320)
updateCurrDst(177356)
updateCurrDst(177541)
updateCurrDst(177569)
updateCurrDst(177645)
Heartbeat CPU 0 instructions: 105000001 cycles: 116978015 heartbeat IPC: 0.32008 cumulative IPC: 0.322598 (Simulation time: 0 hr 11 min 27 sec) 
updateCurrDst(177727)
updateCurrDst(177825)
updateCurrDst(177925)
updateCurrDst(177956)
updateCurrDst(178040)
updateCurrDst(178148)
updateCurrDst(178365)
updateCurrDst(178418)
updateCurrDst(178424)
updateCurrDst(178536)
updateCurrDst(178545)
updateCurrDst(178614)
updateCurrDst(178654)
updateCurrDst(178707)
updateCurrDst(178708)
updateCurrDst(178928)
updateCurrDst(179052)
updateCurrDst(179162)
updateCurrDst(179206)
updateCurrDst(179404)
updateCurrDst(179445)
Heartbeat CPU 0 instructions: 106000000 cycles: 120073971 heartbeat IPC: 0.323002 cumulative IPC: 0.322611 (Simulation time: 0 hr 11 min 34 sec) 
updateCurrDst(179612)
updateCurrDst(179868)
updateCurrDst(179938)
updateCurrDst(179998)
updateCurrDst(180055)
updateCurrDst(180291)
updateCurrDst(180381)
updateCurrDst(180411)
updateCurrDst(180501)
updateCurrDst(180550)
updateCurrDst(180556)
updateCurrDst(180578)
updateCurrDst(180614)
updateCurrDst(180807)
updateCurrDst(180818)
updateCurrDst(180924)
updateCurrDst(181075)
updateCurrDst(181106)
updateCurrDst(181180)
updateCurrDst(181280)
Heartbeat CPU 0 instructions: 107000000 cycles: 123156180 heartbeat IPC: 0.324443 cumulative IPC: 0.322668 (Simulation time: 0 hr 11 min 42 sec) 
updateCurrDst(181433)
updateCurrDst(181485)
updateCurrDst(181636)
updateCurrDst(182076)
updateCurrDst(182177)
updateCurrDst(182178)
updateCurrDst(182247)
updateCurrDst(182292)
updateCurrDst(182553)
updateCurrDst(182653)
updateCurrDst(182871)
Heartbeat CPU 0 instructions: 108000001 cycles: 126245864 heartbeat IPC: 0.323658 cumulative IPC: 0.322698 (Simulation time: 0 hr 11 min 49 sec) 
updateCurrDst(183140)
updateCurrDst(183195)
updateCurrDst(183399)
updateCurrDst(183445)
updateCurrDst(183502)
updateCurrDst(183744)
updateCurrDst(183755)
updateCurrDst(183758)
updateCurrDst(183793)
updateCurrDst(183913)
updateCurrDst(183959)
updateCurrDst(184125)
updateCurrDst(184166)
updateCurrDst(184292)
updateCurrDst(184315)
updateCurrDst(184390)
updateCurrDst(184451)
updateCurrDst(184473)
updateCurrDst(184554)
updateCurrDst(184685)
updateCurrDst(184727)
updateCurrDst(184737)
updateCurrDst(184785)
updateCurrDst(184796)
updateCurrDst(184927)
updateCurrDst(185080)
Heartbeat CPU 0 instructions: 109000001 cycles: 129318275 heartbeat IPC: 0.325477 cumulative IPC: 0.322779 (Simulation time: 0 hr 11 min 57 sec) 
updateCurrDst(185251)
updateCurrDst(185452)
updateCurrDst(185702)
updateCurrDst(185959)
updateCurrDst(186075)
updateCurrDst(186183)
updateCurrDst(186206)
updateCurrDst(186221)
updateCurrDst(186279)
updateCurrDst(186291)
updateCurrDst(186419)
updateCurrDst(186505)
updateCurrDst(186616)
updateCurrDst(186662)
Heartbeat CPU 0 instructions: 110000000 cycles: 132424993 heartbeat IPC: 0.321883 cumulative IPC: 0.322753 (Simulation time: 0 hr 12 min 3 sec) 
updateCurrDst(187065)
updateCurrDst(187086)
updateCurrDst(187275)
updateCurrDst(187481)
updateCurrDst(187676)
updateCurrDst(187701)
updateCurrDst(187782)
updateCurrDst(187803)
updateCurrDst(188016)
updateCurrDst(188203)
updateCurrDst(188262)
updateCurrDst(188307)
updateCurrDst(188327)
updateCurrDst(188458)
updateCurrDst(188462)
Heartbeat CPU 0 instructions: 111000002 cycles: 135512704 heartbeat IPC: 0.323865 cumulative IPC: 0.322784 (Simulation time: 0 hr 12 min 9 sec) 
updateCurrDst(188942)
updateCurrDst(189066)
updateCurrDst(189262)
updateCurrDst(189303)
updateCurrDst(189396)
updateCurrDst(189501)
updateCurrDst(189534)
updateCurrDst(189587)
updateCurrDst(189907)
updateCurrDst(189911)
updateCurrDst(190021)
updateCurrDst(190037)
updateCurrDst(190155)
updateCurrDst(190160)
updateCurrDst(190203)
Heartbeat CPU 0 instructions: 112000000 cycles: 138636025 heartbeat IPC: 0.320171 cumulative IPC: 0.322713 (Simulation time: 0 hr 12 min 16 sec) 
updateCurrDst(190400)
updateCurrDst(190464)
updateCurrDst(190517)
updateCurrDst(190608)
updateCurrDst(190648)
updateCurrDst(190832)
updateCurrDst(190934)
updateCurrDst(191094)
updateCurrDst(191141)
updateCurrDst(191367)
updateCurrDst(191506)
updateCurrDst(191685)
updateCurrDst(191919)
updateCurrDst(192013)
updateCurrDst(192019)
updateCurrDst(192029)
updateCurrDst(192113)
updateCurrDst(192218)
Heartbeat CPU 0 instructions: 113000000 cycles: 141718836 heartbeat IPC: 0.324379 cumulative IPC: 0.322756 (Simulation time: 0 hr 12 min 23 sec) 
updateCurrDst(192535)
updateCurrDst(192844)
updateCurrDst(192857)
updateCurrDst(192863)
updateCurrDst(192944)
updateCurrDst(193059)
updateCurrDst(193160)
updateCurrDst(193191)
updateCurrDst(193193)
updateCurrDst(193301)
updateCurrDst(193303)
updateCurrDst(193327)
updateCurrDst(193338)
updateCurrDst(193354)
updateCurrDst(193394)
updateCurrDst(193428)
updateCurrDst(193436)
updateCurrDst(193575)
updateCurrDst(193761)
updateCurrDst(193955)
updateCurrDst(194115)
Heartbeat CPU 0 instructions: 114000002 cycles: 144820204 heartbeat IPC: 0.322439 cumulative IPC: 0.322748 (Simulation time: 0 hr 12 min 30 sec) 
updateCurrDst(194736)
updateCurrDst(194771)
updateCurrDst(194809)
updateCurrDst(194996)
updateCurrDst(195057)
updateCurrDst(195166)
updateCurrDst(195308)
updateCurrDst(195344)
updateCurrDst(195348)
updateCurrDst(195562)
updateCurrDst(195619)
updateCurrDst(195840)
updateCurrDst(195955)
updateCurrDst(195998)
updateCurrDst(196069)
Heartbeat CPU 0 instructions: 115000002 cycles: 147898264 heartbeat IPC: 0.32488 cumulative IPC: 0.322801 (Simulation time: 0 hr 12 min 38 sec) 
updateCurrDst(196161)
updateCurrDst(196162)
updateCurrDst(196221)
updateCurrDst(196372)
updateCurrDst(196523)
updateCurrDst(196601)
updateCurrDst(196658)
updateCurrDst(197065)
updateCurrDst(197359)
updateCurrDst(197550)
updateCurrDst(197809)
updateCurrDst(197947)
updateCurrDst(198005)
Heartbeat CPU 0 instructions: 116000001 cycles: 150978724 heartbeat IPC: 0.324627 cumulative IPC: 0.322845 (Simulation time: 0 hr 12 min 45 sec) 
updateCurrDst(198211)
updateCurrDst(198235)
updateCurrDst(198319)
updateCurrDst(198380)
updateCurrDst(198601)
updateCurrDst(198618)
updateCurrDst(198630)
updateCurrDst(198907)
updateCurrDst(198910)
updateCurrDst(199023)
updateCurrDst(199029)
updateCurrDst(199057)
updateCurrDst(199058)
updateCurrDst(199061)
updateCurrDst(199207)
updateCurrDst(199242)
updateCurrDst(199307)
updateCurrDst(199320)
updateCurrDst(199444)
updateCurrDst(199522)
updateCurrDst(199532)
updateCurrDst(199648)
updateCurrDst(199745)
updateCurrDst(199772)
updateCurrDst(199966)
Heartbeat CPU 0 instructions: 117000001 cycles: 154058808 heartbeat IPC: 0.324666 cumulative IPC: 0.322889 (Simulation time: 0 hr 12 min 52 sec) 
updateCurrDst(200208)
updateCurrDst(200315)
updateCurrDst(200434)
updateCurrDst(200461)
updateCurrDst(200472)
updateCurrDst(200739)
updateCurrDst(200816)
updateCurrDst(200879)
updateCurrDst(201065)
updateCurrDst(201142)
updateCurrDst(201279)
updateCurrDst(201317)
updateCurrDst(201331)
updateCurrDst(201502)
updateCurrDst(201640)
Heartbeat CPU 0 instructions: 118000000 cycles: 157165476 heartbeat IPC: 0.321888 cumulative IPC: 0.322865 (Simulation time: 0 hr 12 min 59 sec) 
updateCurrDst(202034)
updateCurrDst(202086)
updateCurrDst(202259)
updateCurrDst(202373)
updateCurrDst(202419)
updateCurrDst(202478)
updateCurrDst(202558)
updateCurrDst(202690)
updateCurrDst(202852)
updateCurrDst(202888)
updateCurrDst(202982)
updateCurrDst(203263)
updateCurrDst(203364)
Heartbeat CPU 0 instructions: 119000001 cycles: 160259063 heartbeat IPC: 0.32325 cumulative IPC: 0.322874 (Simulation time: 0 hr 13 min 7 sec) 
updateCurrDst(203467)
updateCurrDst(203600)
updateCurrDst(203601)
updateCurrDst(203643)
updateCurrDst(203799)
updateCurrDst(203809)
updateCurrDst(203844)
updateCurrDst(204004)
updateCurrDst(204341)
updateCurrDst(204368)
updateCurrDst(204409)
updateCurrDst(204522)
updateCurrDst(204597)
updateCurrDst(204619)
Heartbeat CPU 0 instructions: 120000000 cycles: 163381285 heartbeat IPC: 0.320284 cumulative IPC: 0.322816 (Simulation time: 0 hr 13 min 14 sec) 
updateCurrDst(204946)
updateCurrDst(205019)
updateCurrDst(205060)
updateCurrDst(205182)
updateCurrDst(205256)
updateCurrDst(205259)
updateCurrDst(205460)
updateCurrDst(205503)
updateCurrDst(205532)
updateCurrDst(205813)
updateCurrDst(205960)
updateCurrDst(206091)
updateCurrDst(206519)
updateCurrDst(206671)
updateCurrDst(206793)
updateCurrDst(206889)
updateCurrDst(206923)
updateCurrDst(206930)
updateCurrDst(207040)
Heartbeat CPU 0 instructions: 121000000 cycles: 166467016 heartbeat IPC: 0.324072 cumulative IPC: 0.322843 (Simulation time: 0 hr 13 min 21 sec) 
updateCurrDst(207084)
updateCurrDst(207097)
updateCurrDst(207149)
updateCurrDst(207176)
updateCurrDst(207190)
updateCurrDst(207342)
updateCurrDst(207346)
updateCurrDst(207376)
updateCurrDst(207399)
updateCurrDst(207579)
updateCurrDst(207862)
updateCurrDst(207930)
updateCurrDst(207962)
updateCurrDst(208214)
updateCurrDst(208329)
updateCurrDst(208554)
updateCurrDst(208617)
updateCurrDst(208774)
updateCurrDst(208799)
Heartbeat CPU 0 instructions: 122000002 cycles: 169551233 heartbeat IPC: 0.324232 cumulative IPC: 0.322873 (Simulation time: 0 hr 13 min 29 sec) 
updateCurrDst(208967)
updateCurrDst(209094)
updateCurrDst(209166)
updateCurrDst(209271)
updateCurrDst(209294)
updateCurrDst(209496)
updateCurrDst(209624)
updateCurrDst(209629)
updateCurrDst(209772)
updateCurrDst(209920)
updateCurrDst(210028)
updateCurrDst(210126)
updateCurrDst(210233)
updateCurrDst(210519)
updateCurrDst(210534)
updateCurrDst(210688)
updateCurrDst(210759)
updateCurrDst(210805)
Heartbeat CPU 0 instructions: 123000000 cycles: 172629740 heartbeat IPC: 0.324832 cumulative IPC: 0.322913 (Simulation time: 0 hr 13 min 38 sec) 
updateCurrDst(211229)
updateCurrDst(211298)
updateCurrDst(211322)
updateCurrDst(211325)
updateCurrDst(211417)
updateCurrDst(211622)
updateCurrDst(211794)
updateCurrDst(211803)
updateCurrDst(212064)
updateCurrDst(212133)
updateCurrDst(212210)
updateCurrDst(212817)
updateCurrDst(212861)
Heartbeat CPU 0 instructions: 124000002 cycles: 175703324 heartbeat IPC: 0.325354 cumulative IPC: 0.322963 (Simulation time: 0 hr 13 min 44 sec) 
updateCurrDst(213052)
updateCurrDst(213077)
updateCurrDst(213222)
updateCurrDst(213249)
updateCurrDst(213502)
updateCurrDst(213510)
updateCurrDst(213648)
updateCurrDst(213701)
updateCurrDst(213748)
updateCurrDst(214094)
updateCurrDst(214124)
updateCurrDst(214382)
updateCurrDst(214423)
updateCurrDst(214621)
updateCurrDst(214666)
updateCurrDst(214842)
updateCurrDst(214859)
updateCurrDst(214866)
updateCurrDst(214891)
updateCurrDst(214961)
updateCurrDst(214988)
updateCurrDst(214992)
updateCurrDst(214998)
updateCurrDst(215174)
Heartbeat CPU 0 instructions: 125000002 cycles: 178764296 heartbeat IPC: 0.326694 cumulative IPC: 0.323036 (Simulation time: 0 hr 13 min 52 sec) 
updateCurrDst(215310)
updateCurrDst(215475)
updateCurrDst(215480)
updateCurrDst(215583)
updateCurrDst(215609)
updateCurrDst(215618)
updateCurrDst(215768)
updateCurrDst(215913)
updateCurrDst(216089)
updateCurrDst(216159)
updateCurrDst(216181)
updateCurrDst(216434)
updateCurrDst(216460)
updateCurrDst(216464)
updateCurrDst(216521)
updateCurrDst(216536)
updateCurrDst(216655)
updateCurrDst(216714)
Heartbeat CPU 0 instructions: 126000000 cycles: 181885119 heartbeat IPC: 0.320428 cumulative IPC: 0.322985 (Simulation time: 0 hr 13 min 59 sec) 
updateCurrDst(216831)
updateCurrDst(216853)
updateCurrDst(217191)
updateCurrDst(217259)
updateCurrDst(217332)
updateCurrDst(217433)
updateCurrDst(217655)
updateCurrDst(217661)
updateCurrDst(217881)
updateCurrDst(217891)
updateCurrDst(217970)
updateCurrDst(218067)
updateCurrDst(218185)
updateCurrDst(218187)
updateCurrDst(218242)
updateCurrDst(218309)
updateCurrDst(218362)
Heartbeat CPU 0 instructions: 127000001 cycles: 184991301 heartbeat IPC: 0.321939 cumulative IPC: 0.322965 (Simulation time: 0 hr 14 min 5 sec) 
updateCurrDst(218421)
updateCurrDst(218543)
updateCurrDst(218717)
updateCurrDst(218719)
updateCurrDst(218738)
updateCurrDst(218812)
updateCurrDst(218976)
updateCurrDst(218999)
updateCurrDst(219065)
updateCurrDst(219069)
updateCurrDst(219178)
updateCurrDst(219418)
updateCurrDst(219451)
updateCurrDst(219581)
updateCurrDst(219616)
Heartbeat CPU 0 instructions: 128000000 cycles: 188125177 heartbeat IPC: 0.319093 cumulative IPC: 0.322891 (Simulation time: 0 hr 14 min 13 sec) 
updateCurrDst(219836)
updateCurrDst(220216)
updateCurrDst(220249)
updateCurrDst(220294)
updateCurrDst(220362)
updateCurrDst(220616)
updateCurrDst(220661)
updateCurrDst(220848)
updateCurrDst(220864)
updateCurrDst(220942)
updateCurrDst(220973)
updateCurrDst(221102)
updateCurrDst(221295)
Heartbeat CPU 0 instructions: 129000000 cycles: 191241938 heartbeat IPC: 0.320846 cumulative IPC: 0.322853 (Simulation time: 0 hr 14 min 21 sec) 
updateCurrDst(221353)
updateCurrDst(221490)
updateCurrDst(221608)
updateCurrDst(221761)
updateCurrDst(221763)
updateCurrDst(221790)
updateCurrDst(221992)
updateCurrDst(222041)
updateCurrDst(222059)
updateCurrDst(222311)
updateCurrDst(222405)
updateCurrDst(222555)
updateCurrDst(222577)
updateCurrDst(222645)
updateCurrDst(222714)
Heartbeat CPU 0 instructions: 130000001 cycles: 194350161 heartbeat IPC: 0.321728 cumulative IPC: 0.322832 (Simulation time: 0 hr 14 min 28 sec) 
updateCurrDst(222795)
updateCurrDst(222851)
updateCurrDst(223013)
updateCurrDst(223045)
updateCurrDst(223092)
updateCurrDst(223254)
updateCurrDst(223271)
updateCurrDst(223415)
updateCurrDst(223558)
updateCurrDst(223773)
updateCurrDst(223911)
updateCurrDst(223983)
updateCurrDst(224000)
updateCurrDst(224120)
updateCurrDst(224232)
updateCurrDst(224269)
updateCurrDst(224277)
updateCurrDst(224399)
updateCurrDst(224532)
updateCurrDst(224584)
Heartbeat CPU 0 instructions: 131000000 cycles: 197454552 heartbeat IPC: 0.322124 cumulative IPC: 0.322819 (Simulation time: 0 hr 14 min 35 sec) 
updateCurrDst(224760)
updateCurrDst(224856)
updateCurrDst(224952)
updateCurrDst(224953)
updateCurrDst(225003)
updateCurrDst(225027)
updateCurrDst(225091)
updateCurrDst(225166)
updateCurrDst(225228)
updateCurrDst(225566)
updateCurrDst(225736)
updateCurrDst(225985)
updateCurrDst(226051)
updateCurrDst(226073)
updateCurrDst(226129)
updateCurrDst(226256)
updateCurrDst(226365)
Heartbeat CPU 0 instructions: 132000000 cycles: 200543064 heartbeat IPC: 0.323781 cumulative IPC: 0.322836 (Simulation time: 0 hr 14 min 42 sec) 
updateCurrDst(226576)
updateCurrDst(226628)
updateCurrDst(226810)
updateCurrDst(226817)
updateCurrDst(227088)
updateCurrDst(227128)
updateCurrDst(227257)
updateCurrDst(227489)
updateCurrDst(227631)
updateCurrDst(227665)
updateCurrDst(227861)
updateCurrDst(228320)
Heartbeat CPU 0 instructions: 133000000 cycles: 203653566 heartbeat IPC: 0.321492 cumulative IPC: 0.322813 (Simulation time: 0 hr 14 min 49 sec) 
updateCurrDst(228399)
updateCurrDst(228565)
updateCurrDst(228859)
updateCurrDst(228936)
updateCurrDst(229279)
updateCurrDst(229318)
updateCurrDst(229362)
updateCurrDst(229548)
updateCurrDst(229559)
updateCurrDst(229656)
updateCurrDst(229668)
updateCurrDst(229760)
Heartbeat CPU 0 instructions: 134000001 cycles: 206739007 heartbeat IPC: 0.324103 cumulative IPC: 0.322835 (Simulation time: 0 hr 14 min 57 sec) 
updateCurrDst(230131)
updateCurrDst(230186)
updateCurrDst(230277)
updateCurrDst(230481)
updateCurrDst(230520)
updateCurrDst(230537)
updateCurrDst(230568)
updateCurrDst(230572)
updateCurrDst(230667)
updateCurrDst(230911)
updateCurrDst(230916)
updateCurrDst(230965)
updateCurrDst(230971)
updateCurrDst(231008)
updateCurrDst(231203)
updateCurrDst(231241)
updateCurrDst(231251)
updateCurrDst(231299)
updateCurrDst(231312)
updateCurrDst(231350)
updateCurrDst(231360)
Heartbeat CPU 0 instructions: 135000002 cycles: 209864924 heartbeat IPC: 0.319906 cumulative IPC: 0.322785 (Simulation time: 0 hr 15 min 3 sec) 
updateCurrDst(231465)
updateCurrDst(231632)
updateCurrDst(231650)
updateCurrDst(231744)
updateCurrDst(231849)
updateCurrDst(231981)
updateCurrDst(232166)
updateCurrDst(232308)
updateCurrDst(232350)
updateCurrDst(232364)
updateCurrDst(232657)
updateCurrDst(232665)
updateCurrDst(232777)
updateCurrDst(232960)
updateCurrDst(232999)
updateCurrDst(233013)
updateCurrDst(233042)
updateCurrDst(233195)
Heartbeat CPU 0 instructions: 136000001 cycles: 212942689 heartbeat IPC: 0.324911 cumulative IPC: 0.32282 (Simulation time: 0 hr 15 min 11 sec) 
updateCurrDst(233508)
updateCurrDst(233522)
updateCurrDst(233564)
updateCurrDst(233729)
updateCurrDst(233868)
updateCurrDst(233951)
updateCurrDst(233968)
updateCurrDst(233980)
updateCurrDst(234120)
updateCurrDst(234207)
updateCurrDst(234368)
updateCurrDst(234534)
updateCurrDst(234665)
updateCurrDst(234803)
Heartbeat CPU 0 instructions: 137000001 cycles: 216057310 heartbeat IPC: 0.321066 cumulative IPC: 0.322792 (Simulation time: 0 hr 15 min 18 sec) 
updateCurrDst(235119)
updateCurrDst(235176)
updateCurrDst(235200)
updateCurrDst(235434)
updateCurrDst(235487)
updateCurrDst(235540)
updateCurrDst(235589)
updateCurrDst(235889)
updateCurrDst(235982)
updateCurrDst(236218)
updateCurrDst(236326)
updateCurrDst(236573)
updateCurrDst(236601)
updateCurrDst(236638)
updateCurrDst(236675)
updateCurrDst(236691)
Heartbeat CPU 0 instructions: 138000002 cycles: 219175063 heartbeat IPC: 0.320744 cumulative IPC: 0.322759 (Simulation time: 0 hr 15 min 25 sec) 
updateCurrDst(236844)
updateCurrDst(237120)
updateCurrDst(237141)
updateCurrDst(237213)
updateCurrDst(237382)
updateCurrDst(237391)
updateCurrDst(237441)
updateCurrDst(237622)
updateCurrDst(237702)
updateCurrDst(237728)
Heartbeat CPU 0 instructions: 139000000 cycles: 222332102 heartbeat IPC: 0.316752 cumulative IPC: 0.322663 (Simulation time: 0 hr 15 min 32 sec) 
updateCurrDst(237850)
updateCurrDst(237865)
updateCurrDst(238054)
updateCurrDst(238155)
updateCurrDst(238207)
updateCurrDst(238298)
updateCurrDst(238735)
updateCurrDst(238791)
updateCurrDst(238809)
updateCurrDst(239253)
updateCurrDst(239369)
updateCurrDst(239581)
updateCurrDst(239666)
Heartbeat CPU 0 instructions: 140000001 cycles: 225460950 heartbeat IPC: 0.319607 cumulative IPC: 0.322616 (Simulation time: 0 hr 15 min 39 sec) 
updateCurrDst(239838)
updateCurrDst(239899)
updateCurrDst(240138)
updateCurrDst(240142)
updateCurrDst(240395)
updateCurrDst(240407)
updateCurrDst(240484)
updateCurrDst(240534)
updateCurrDst(240800)
updateCurrDst(240877)
updateCurrDst(240948)
updateCurrDst(241144)
updateCurrDst(241269)
updateCurrDst(241294)
Heartbeat CPU 0 instructions: 141000000 cycles: 228594443 heartbeat IPC: 0.319132 cumulative IPC: 0.322563 (Simulation time: 0 hr 15 min 46 sec) 
updateCurrDst(241527)
updateCurrDst(241650)
updateCurrDst(241684)
updateCurrDst(241721)
updateCurrDst(241790)
updateCurrDst(241985)
updateCurrDst(242183)
updateCurrDst(242214)
updateCurrDst(242622)
updateCurrDst(242633)
updateCurrDst(242708)
updateCurrDst(242808)
updateCurrDst(243002)
updateCurrDst(243093)
updateCurrDst(243094)
updateCurrDst(243106)
updateCurrDst(243161)
updateCurrDst(243188)
updateCurrDst(243236)
updateCurrDst(243345)
updateCurrDst(243351)
updateCurrDst(243375)
Heartbeat CPU 0 instructions: 142000001 cycles: 231704031 heartbeat IPC: 0.321586 cumulative IPC: 0.322548 (Simulation time: 0 hr 15 min 54 sec) 
updateCurrDst(243525)
updateCurrDst(243641)
updateCurrDst(243767)
updateCurrDst(243924)
updateCurrDst(243994)
updateCurrDst(244055)
updateCurrDst(244071)
updateCurrDst(244144)
updateCurrDst(244268)
updateCurrDst(244410)
updateCurrDst(244513)
updateCurrDst(244554)
updateCurrDst(244555)
updateCurrDst(244597)
updateCurrDst(244653)
updateCurrDst(244705)
updateCurrDst(244896)
updateCurrDst(244942)
updateCurrDst(245005)
updateCurrDst(245089)
updateCurrDst(245155)
updateCurrDst(245211)
Heartbeat CPU 0 instructions: 143000000 cycles: 234814194 heartbeat IPC: 0.321526 cumulative IPC: 0.322533 (Simulation time: 0 hr 16 min 2 sec) 
updateCurrDst(245624)
updateCurrDst(245845)
updateCurrDst(245933)
updateCurrDst(245941)
updateCurrDst(245965)
updateCurrDst(246195)
updateCurrDst(246335)
updateCurrDst(246449)
updateCurrDst(246615)
updateCurrDst(246622)
updateCurrDst(246657)
updateCurrDst(246786)
updateCurrDst(246887)
updateCurrDst(246960)
updateCurrDst(246992)
updateCurrDst(247094)
Heartbeat CPU 0 instructions: 144000001 cycles: 237934953 heartbeat IPC: 0.320435 cumulative IPC: 0.322502 (Simulation time: 0 hr 16 min 9 sec) 
updateCurrDst(247405)
updateCurrDst(247446)
updateCurrDst(247739)
updateCurrDst(247796)
updateCurrDst(248300)
updateCurrDst(248315)
updateCurrDst(248477)
updateCurrDst(248555)
updateCurrDst(248701)
updateCurrDst(248702)
updateCurrDst(248743)
updateCurrDst(249035)
updateCurrDst(249065)
Heartbeat CPU 0 instructions: 145000001 cycles: 241055850 heartbeat IPC: 0.320421 cumulative IPC: 0.322472 (Simulation time: 0 hr 16 min 15 sec) 
updateCurrDst(249231)
updateCurrDst(249270)
updateCurrDst(249658)
updateCurrDst(249661)
updateCurrDst(249719)
updateCurrDst(249795)
updateCurrDst(249934)
updateCurrDst(250129)
updateCurrDst(250136)
updateCurrDst(250174)
updateCurrDst(250237)
updateCurrDst(250565)
updateCurrDst(250607)
updateCurrDst(250818)
updateCurrDst(250860)
updateCurrDst(250895)
updateCurrDst(250909)
updateCurrDst(250911)
updateCurrDst(250938)
Heartbeat CPU 0 instructions: 146000000 cycles: 244166433 heartbeat IPC: 0.321483 cumulative IPC: 0.322458 (Simulation time: 0 hr 16 min 22 sec) 
updateCurrDst(250966)
updateCurrDst(251176)
updateCurrDst(251300)
updateCurrDst(251393)
updateCurrDst(251417)
updateCurrDst(251628)
updateCurrDst(251858)
updateCurrDst(251893)
updateCurrDst(252180)
updateCurrDst(252254)
updateCurrDst(252468)
updateCurrDst(252521)
Heartbeat CPU 0 instructions: 147000000 cycles: 247295009 heartbeat IPC: 0.319634 cumulative IPC: 0.322419 (Simulation time: 0 hr 16 min 29 sec) 
updateCurrDst(252682)
updateCurrDst(252717)
updateCurrDst(252876)
updateCurrDst(252945)
updateCurrDst(252961)
updateCurrDst(253027)
updateCurrDst(253341)
updateCurrDst(253422)
updateCurrDst(253468)
updateCurrDst(253486)
updateCurrDst(253555)
updateCurrDst(253687)
updateCurrDst(253749)
updateCurrDst(253822)
updateCurrDst(253853)
updateCurrDst(253944)
updateCurrDst(254096)
updateCurrDst(254100)
updateCurrDst(254125)
updateCurrDst(254140)
updateCurrDst(254278)
updateCurrDst(254298)
updateCurrDst(254332)
updateCurrDst(254350)
updateCurrDst(254413)
updateCurrDst(254434)
Heartbeat CPU 0 instructions: 148000000 cycles: 250416872 heartbeat IPC: 0.320322 cumulative IPC: 0.32239 (Simulation time: 0 hr 16 min 37 sec) 
updateCurrDst(254488)
updateCurrDst(254511)
updateCurrDst(254571)
updateCurrDst(254597)
updateCurrDst(254625)
updateCurrDst(254739)
updateCurrDst(254797)
updateCurrDst(254807)
updateCurrDst(254853)
updateCurrDst(255074)
updateCurrDst(255208)
updateCurrDst(255429)
updateCurrDst(255616)
updateCurrDst(255632)
updateCurrDst(255711)
updateCurrDst(255884)
updateCurrDst(256007)
updateCurrDst(256030)
updateCurrDst(256294)
updateCurrDst(256303)
Heartbeat CPU 0 instructions: 149000000 cycles: 253537727 heartbeat IPC: 0.320425 cumulative IPC: 0.322363 (Simulation time: 0 hr 16 min 44 sec) 
updateCurrDst(256407)
updateCurrDst(256591)
updateCurrDst(256723)
updateCurrDst(256767)
updateCurrDst(256791)
updateCurrDst(256814)
updateCurrDst(256905)
updateCurrDst(256979)
updateCurrDst(257174)
updateCurrDst(257213)
updateCurrDst(257368)
updateCurrDst(257702)
updateCurrDst(257705)
updateCurrDst(258021)
updateCurrDst(258037)
updateCurrDst(258170)
updateCurrDst(258202)
updateCurrDst(258249)
updateCurrDst(258273)
*** Reached end of trace for Core: 0 Repeating trace: testcases/pull_g18_k4.xzafter: 150000000
Heartbeat CPU 0 instructions: 150000000 cycles: 256654516 heartbeat IPC: 0.320843 cumulative IPC: 0.322343 (Simulation time: 0 hr 16 min 51 sec) 
Finished CPU 0 instructions: 75000001 cycles: 232671596 cumulative IPC: 0.322343 (Simulation time: 0 hr 16 min 51 sec) 

ChampSim completed all CPUs

Region of Interest Statistics

CPU 0 cumulative IPC: 0.322343 instructions: 75000001 cycles: 232671596

Total ROB STALLS:                   27876202
STLB MISS ROB STALLS:                   1389
L1D  LOAD MISS ROB STALLS:            971322  Translation MISS ROB STALLS:             0
L2C  LOAD MISS ROB STALLS:            392925  Translation MISS ROB STALLS:             0
LLC  LOAD MISS ROB STALLS:             96273  Translation MISS ROB STALLS:             0

ITLB TOTAL     ACCESS:          10083666  HIT:   10083666  MISS:          0  HIT %:        100  MISS %:          0   MPKI: 0
ITLB LOAD TRANSLATION ACCESS:   10083666  HIT:   10083666  MISS:          0  HIT %:        100  MISS %:          0   MPKI: 0
ITLB AVERAGE MISS LATENCY:          -nan cycles
ITLB RQ ACCESS:    10884194	FORWARD:           0	MERGED:       800528	TO_CACHE:   10083666

DTLB TOTAL     ACCESS:          22646798  HIT:   22009129  MISS:     637669  HIT %:    97.1843  MISS %:    2.81571   MPKI: 8.50225
DTLB LOAD TRANSLATION ACCESS:   22646798  HIT:   22009129  MISS:     637669  HIT %:    97.1843  MISS %:    2.81571   MPKI: 8.50225
DTLB AVERAGE MISS LATENCY:       9.52189 cycles
DTLB RQ ACCESS:    31892001	FORWARD:           0	MERGED:      9245203	TO_CACHE:   22646798

STLB TOTAL     ACCESS:            637669  HIT:     636277  MISS:       1392  HIT %:    99.7817  MISS %:   0.218295   MPKI: 0.01856
STLB LOAD TRANSLATION ACCESS:     637669  HIT:     636277  MISS:       1392  HIT %:    99.7817  MISS %:   0.218295   MPKI: 0.01856
STLB AVERAGE MISS LATENCY:       239.075 cycles
STLB RQ ACCESS:      637669	FORWARD:           0	MERGED:            0	TO_CACHE:     637669

PSCL5 TOTAL     ACCESS:              1392  HIT:       1392  MISS:          0  HIT %:        100  MISS %:          0   MPKI: 0
PSCL5 LOAD TRANSLATION ACCESS:       1392  HIT:       1392  MISS:          0  HIT %:        100  MISS %:          0   MPKI: 0

PSCL4 TOTAL     ACCESS:              1392  HIT:       1392  MISS:          0  HIT %:        100  MISS %:          0   MPKI: 0
PSCL4 LOAD TRANSLATION ACCESS:       1392  HIT:       1392  MISS:          0  HIT %:        100  MISS %:          0   MPKI: 0

PSCL3 TOTAL     ACCESS:              1392  HIT:       1392  MISS:          0  HIT %:        100  MISS %:          0   MPKI: 0
PSCL3 LOAD TRANSLATION ACCESS:       1392  HIT:       1392  MISS:          0  HIT %:        100  MISS %:          0   MPKI: 0

PSCL2 TOTAL     ACCESS:              1392  HIT:       1391  MISS:          1  HIT %:    99.9282  MISS %:  0.0718391   MPKI: 1.33333e-05
PSCL2 LOAD TRANSLATION ACCESS:       1392  HIT:       1391  MISS:          1  HIT %:    99.9282  MISS %:  0.0718391   MPKI: 1.33333e-05

L1D TOTAL     ACCESS:          31891250  HIT:   30919483  MISS:     971767  HIT %:    96.9529  MISS %:    3.04713   MPKI: 12.9569  USED:     184001  UNUSED:     787766
L1D LOAD      ACCESS:          14616870  HIT:   13645437  MISS:     971433  HIT %:     93.354  MISS %:    6.64597   MPKI: 12.9524  USED:     183667  UNUSED:     787766
L1D RFO       ACCESS:          17274380  HIT:   17274046  MISS:        334  HIT %:    99.9981  MISS %:  0.0019335   MPKI: 0.00445333
L1D PTL1 TRANSLATION ACCESS:          0  HIT:          0  MISS:          0  HIT %:       -nan  MISS %:       -nan   MPKI: 0
L1D PTL2 TRANSLATION ACCESS:          0  HIT:          0  MISS:          0  HIT %:       -nan  MISS %:       -nan   MPKI: 0
L1D PTL3 TRANSLATION ACCESS:          0  HIT:          0  MISS:          0  HIT %:       -nan  MISS %:       -nan   MPKI: 0
L1D PTL4 TRANSLATION ACCESS:          0  HIT:          0  MISS:          0  HIT %:       -nan  MISS %:       -nan   MPKI: 0
L1D PTL5 TRANSLATION ACCESS:          0  HIT:          0  MISS:          0  HIT %:       -nan  MISS %:       -nan   MPKI: 0
L1D TOTAL EVICTIONS:             971767  TRANSLATION EVICTIONS:          0  TRANSLATION EVICTING TRANSALTION:          0  TRANSLATION EVICTING LOAD:          0  LOAD EVICTING TRANSALTION:          0  LOAD EVICTING LOAD:      971099
L1D AVERAGE MISS LATENCY:       38.7461 cycles  AVERAGE LOAD MISS LATENCY:       38.7539 cycles  AVERAGE LOAD TRANSLATION MISS LATENCY:          -nan cycles
L1D RQ ACCESS:    18885550	FORWARD:           0	MERGED:      2495647	TO_CACHE:   14616873
L1D WQ ACCESS:    17290345	FORWARD:     1773030	MERGED:        15217	TO_CACHE:   17275128

L1I TOTAL     ACCESS:          10884194  HIT:   10884194  MISS:          0  HIT %:        100  MISS %:          0   MPKI: 0
L1I LOAD      ACCESS:          10884194  HIT:   10884194  MISS:          0  HIT %:        100  MISS %:          0   MPKI: 0
L1I AVERAGE MISS LATENCY:          -nan cycles
L1I RQ ACCESS:    17323017	FORWARD:           0	MERGED:      6438823	TO_CACHE:   10884194

L2C TOTAL     ACCESS:            980437  HIT:     587382  MISS:     393055  HIT %:    59.9102  MISS %:    40.0898   MPKI: 5.24073  USED:     136642  UNUSED:     256413
L2C LOAD      ACCESS:            971433  HIT:     578466  MISS:     392967  HIT %:    59.5477  MISS %:    40.4523   MPKI: 5.23956  USED:     136558  UNUSED:     256408
L2C RFO       ACCESS:               334  HIT:        322  MISS:         12  HIT %:    96.4072  MISS %:    3.59281   MPKI: 0.00016
L2C WRITEBACK ACCESS:              8670  HIT:       8594  MISS:         76  HIT %:    99.1234  MISS %:   0.876586   MPKI: 0.00101333
L2C PTL1 TRANSLATION ACCESS:          0  HIT:          0  MISS:          0  HIT %:       -nan  MISS %:       -nan   MPKI: 0
L2C PTL2 TRANSLATION ACCESS:          0  HIT:          0  MISS:          0  HIT %:       -nan  MISS %:       -nan   MPKI: 0
L2C PTL3 TRANSLATION ACCESS:          0  HIT:          0  MISS:          0  HIT %:       -nan  MISS %:       -nan   MPKI: 0
L2C PTL4 TRANSLATION ACCESS:          0  HIT:          0  MISS:          0  HIT %:       -nan  MISS %:       -nan   MPKI: 0
L2C PTL5 TRANSLATION ACCESS:          0  HIT:          0  MISS:          0  HIT %:       -nan  MISS %:       -nan   MPKI: 0
L2C TOTAL EVICTIONS:             393055  TRANSLATION EVICTIONS:          0  TRANSLATION EVICTING TRANSALTION:          0  TRANSLATION EVICTING LOAD:          0  LOAD EVICTING TRANSALTION:          0  LOAD EVICTING LOAD:      392878
L2C AVERAGE MISS LATENCY:       58.7084 cycles  AVERAGE LOAD MISS LATENCY:       58.7207 cycles  AVERAGE LOAD TRANSLATION MISS LATENCY:          -nan cycles
L2C RQ ACCESS:      971768	FORWARD:           0	MERGED:            0	TO_CACHE:     971768
L2C WQ ACCESS:        8670	FORWARD:           0	MERGED:            0	TO_CACHE:       8670

LLC TOTAL     ACCESS:            401393  HIT:     305111  MISS:      96282  HIT %:     76.013  MISS %:     23.987   MPKI: 1.28376  USED:       5755  UNUSED:      90527
LLC LOAD      ACCESS:            392967  HIT:     296694  MISS:      96273  HIT %:     75.501  MISS %:     24.499   MPKI: 1.28364  USED:       4811  UNUSED:      90521
LLC RFO       ACCESS:                12  HIT:         12  MISS:          0  HIT %:        100  MISS %:          0   MPKI: 0
LLC WRITEBACK ACCESS:              8414  HIT:       8405  MISS:          9  HIT %:     99.893  MISS %:   0.106965   MPKI: 0.00012
LLC PTL1 TRANSLATION ACCESS:          0  HIT:          0  MISS:          0  HIT %:       -nan  MISS %:       -nan   MPKI: 0
LLC PTL2 TRANSLATION ACCESS:          0  HIT:          0  MISS:          0  HIT %:       -nan  MISS %:       -nan   MPKI: 0
LLC PTL3 TRANSLATION ACCESS:          0  HIT:          0  MISS:          0  HIT %:       -nan  MISS %:       -nan   MPKI: 0
LLC PTL4 TRANSLATION ACCESS:          0  HIT:          0  MISS:          0  HIT %:       -nan  MISS %:       -nan   MPKI: 0
LLC PTL5 TRANSLATION ACCESS:          0  HIT:          0  MISS:          0  HIT %:       -nan  MISS %:       -nan   MPKI: 0
LLC TOTAL EVICTIONS:              96282  TRANSLATION EVICTIONS:          0  TRANSLATION EVICTING TRANSALTION:          0  TRANSLATION EVICTING LOAD:          0  LOAD EVICTING TRANSALTION:          0  LOAD EVICTING LOAD:       95323
LLC AVERAGE MISS LATENCY:       117.221 cycles  AVERAGE LOAD MISS LATENCY:       117.232 cycles  AVERAGE LOAD TRANSLATION MISS LATENCY:          -nan cycles
LLC RQ ACCESS:      392980	FORWARD:           0	MERGED:            0	TO_CACHE:     392980
LLC WQ ACCESS:        8414	FORWARD:           0	MERGED:            0	TO_CACHE:       8414


RAW hits: 13068041
Loads Generated: 31953591
Loads sent to L1D: 18885550
Stores Generated: 17290344
Stores sent to L1D: 17290345
Major fault: 0 Minor fault: 3154
Allocated PAGES: 3154
IRREG DATA L1D ACCESS: 1980247
L2C ACCESSES: 1704564
L2C MISSES: 587169

DRAM Statistics
 CHANNEL 0
 RQ ROW_BUFFER_HIT:      50814  ROW_BUFFER_MISS:      46851
 DBUS_CONGESTED:          0
 WQ ROW_BUFFER_HIT:         38  ROW_BUFFER_MISS:       9200  FULL:          0

 AVG_CONGESTED_CYCLE: -

CPU 0 Branch Prediction Accuracy: 98.6434% MPKI: 1.66853 Average ROB Occupancy at Mispredict: 14.426
Branch types
NOT_BRANCH: 65774769 87.6997%
BRANCH_DIRECT_JUMP: 0 0%
BRANCH_INDIRECT: 1159448 1.54593%
BRANCH_CONDITIONAL: 0 0%
BRANCH_DIRECT_CALL: 133421 0.177895%
BRANCH_INDIRECT_CALL: 3119425 4.15923%
BRANCH_RETURN: 3252848 4.33713%
BRANCH_OTHER: 1559712 2.07962%

DRAM PAGES: 1048576
Allocated PAGES: 3154
