
*** ChampSim Multicore Out-of-Order Simulator ***

Warmup Instructions: 16000000
Simulation Instructions: 16000000
Number of CPUs: 1
LLC sets: 2048
LLC ways: 16
Off-chip DRAM Size: 4096 MB Channels: 1 Width: 64-bit Data Rate: 6400 MT/s
CPU 0 runs tracer/pull_g16_k3.xz
.xz
BTB has LRU replacement policy
ITLB has LRU replacement policy
DTLB has LRU replacement policy
STLB has LRU replacement policy
L1I has LRU replacement policy
L1D has LRU replacement policy
L2C has SRRIP replacement policy, Data insertion rrpv: 0  Translation insertion rrpv: 0
Initialize DRRIP state for LLC
Heartbeat CPU 0 instructions: 1000002 cycles: 350514 heartbeat IPC: 2.85296 cumulative IPC: 2.85296 (Simulation time: 0 hr 0 min 6 sec) 
PIN_registerGraphs(test_g16_k3.sg,1)
Graphh Number of Nodes: 65535
Heartbeat CPU 0 instructions: 2000001 cycles: 690802 heartbeat IPC: 2.93868 cumulative IPC: 2.89519 (Simulation time: 0 hr 0 min 9 sec) 
PIN_updateRegBaseBound( 94047396556944, 94047396819084)
updateCurrDst(44)
updateCurrDst(272)
updateCurrDst(284)
updateCurrDst(384)
updateCurrDst(393)
updateCurrDst(394)
updateCurrDst(524)
updateCurrDst(723)
updateCurrDst(780)
updateCurrDst(1080)
Heartbeat CPU 0 instructions: 3000001 cycles: 1016185 heartbeat IPC: 3.0733 cumulative IPC: 2.95222 (Simulation time: 0 hr 0 min 12 sec) 
updateCurrDst(1462)
updateCurrDst(1478)
updateCurrDst(1602)
updateCurrDst(1603)
updateCurrDst(1641)
updateCurrDst(1739)
updateCurrDst(1867)
updateCurrDst(1903)
updateCurrDst(1939)
updateCurrDst(2013)
updateCurrDst(2052)
updateCurrDst(2145)
updateCurrDst(2208)
updateCurrDst(2241)
updateCurrDst(2255)
updateCurrDst(2308)
updateCurrDst(2378)
updateCurrDst(2853)
updateCurrDst(3008)
Heartbeat CPU 0 instructions: 4000003 cycles: 1330770 heartbeat IPC: 3.1788 cumulative IPC: 3.00578 (Simulation time: 0 hr 0 min 15 sec) 
updateCurrDst(3254)
updateCurrDst(3368)
updateCurrDst(3377)
updateCurrDst(3577)
updateCurrDst(3947)
updateCurrDst(3999)
updateCurrDst(4274)
updateCurrDst(4279)
updateCurrDst(4302)
updateCurrDst(4402)
updateCurrDst(4581)
updateCurrDst(4802)
updateCurrDst(4871)
updateCurrDst(5096)
updateCurrDst(5204)
updateCurrDst(5411)
Heartbeat CPU 0 instructions: 5000003 cycles: 1650842 heartbeat IPC: 3.1243 cumulative IPC: 3.02876 (Simulation time: 0 hr 0 min 19 sec) 
updateCurrDst(5484)
updateCurrDst(5523)
updateCurrDst(5634)
updateCurrDst(5730)
updateCurrDst(5844)
updateCurrDst(5935)
updateCurrDst(6142)
updateCurrDst(6243)
updateCurrDst(6300)
updateCurrDst(6311)
updateCurrDst(6403)
updateCurrDst(6519)
updateCurrDst(6520)
updateCurrDst(6664)
updateCurrDst(6831)
updateCurrDst(6868)
updateCurrDst(6916)
updateCurrDst(6971)
updateCurrDst(6999)
updateCurrDst(7005)
updateCurrDst(7015)
updateCurrDst(7041)
updateCurrDst(7280)
updateCurrDst(7303)
updateCurrDst(7339)
updateCurrDst(7362)
updateCurrDst(7375)
updateCurrDst(7421)
Heartbeat CPU 0 instructions: 6000000 cycles: 1970031 heartbeat IPC: 3.13293 cumulative IPC: 3.04564 (Simulation time: 0 hr 0 min 23 sec) 
updateCurrDst(7678)
updateCurrDst(7793)
updateCurrDst(7918)
updateCurrDst(7940)
updateCurrDst(7949)
updateCurrDst(8152)
updateCurrDst(8185)
updateCurrDst(8280)
updateCurrDst(8295)
updateCurrDst(8303)
updateCurrDst(8393)
updateCurrDst(8417)
updateCurrDst(8684)
updateCurrDst(8685)
updateCurrDst(8752)
updateCurrDst(8816)
updateCurrDst(8938)
updateCurrDst(9096)
updateCurrDst(9121)
updateCurrDst(9127)
updateCurrDst(9177)
updateCurrDst(9195)
updateCurrDst(9219)
updateCurrDst(9296)
updateCurrDst(9381)
updateCurrDst(9458)
updateCurrDst(9490)
updateCurrDst(9655)
updateCurrDst(9800)
updateCurrDst(9878)
updateCurrDst(9944)
updateCurrDst(9986)
updateCurrDst(9999)
Heartbeat CPU 0 instructions: 7000000 cycles: 2290715 heartbeat IPC: 3.11833 cumulative IPC: 3.05581 (Simulation time: 0 hr 0 min 26 sec) 
updateCurrDst(10057)
updateCurrDst(10076)
updateCurrDst(10205)
updateCurrDst(10385)
updateCurrDst(10393)
updateCurrDst(10413)
updateCurrDst(10824)
updateCurrDst(10871)
updateCurrDst(11005)
updateCurrDst(11081)
updateCurrDst(11120)
updateCurrDst(11175)
updateCurrDst(11206)
updateCurrDst(11239)
updateCurrDst(11263)
updateCurrDst(11293)
updateCurrDst(11425)
updateCurrDst(11468)
updateCurrDst(11494)
updateCurrDst(11746)
updateCurrDst(11822)
updateCurrDst(11838)
updateCurrDst(11914)
updateCurrDst(11988)
updateCurrDst(12044)
updateCurrDst(12079)
updateCurrDst(12232)
Heartbeat CPU 0 instructions: 8000001 cycles: 2609745 heartbeat IPC: 3.1345 cumulative IPC: 3.06543 (Simulation time: 0 hr 0 min 30 sec) 
updateCurrDst(12532)
updateCurrDst(12643)
updateCurrDst(12647)
updateCurrDst(12699)
updateCurrDst(12912)
updateCurrDst(13161)
updateCurrDst(13236)
updateCurrDst(13306)
updateCurrDst(13420)
updateCurrDst(13463)
updateCurrDst(13475)
updateCurrDst(13688)
updateCurrDst(13877)
updateCurrDst(14081)
updateCurrDst(14250)
updateCurrDst(14272)
Heartbeat CPU 0 instructions: 9000001 cycles: 2926460 heartbeat IPC: 3.15741 cumulative IPC: 3.07539 (Simulation time: 0 hr 0 min 34 sec) 
updateCurrDst(14454)
updateCurrDst(14482)
updateCurrDst(14662)
updateCurrDst(14815)
updateCurrDst(14819)
updateCurrDst(14837)
updateCurrDst(15018)
updateCurrDst(15190)
updateCurrDst(15207)
updateCurrDst(15350)
updateCurrDst(15541)
updateCurrDst(15618)
updateCurrDst(15972)
updateCurrDst(16135)
updateCurrDst(16187)
updateCurrDst(16205)
updateCurrDst(16238)
updateCurrDst(16287)
Heartbeat CPU 0 instructions: 10000001 cycles: 3244876 heartbeat IPC: 3.14055 cumulative IPC: 3.08178 (Simulation time: 0 hr 0 min 37 sec) 
updateCurrDst(16551)
updateCurrDst(16776)
updateCurrDst(16828)
updateCurrDst(16911)
updateCurrDst(17026)
updateCurrDst(17065)
updateCurrDst(17091)
updateCurrDst(17182)
updateCurrDst(17361)
updateCurrDst(17490)
updateCurrDst(17517)
updateCurrDst(17617)
updateCurrDst(17643)
updateCurrDst(17692)
updateCurrDst(17737)
updateCurrDst(17755)
updateCurrDst(17758)
updateCurrDst(17834)
updateCurrDst(17862)
updateCurrDst(17869)
updateCurrDst(17874)
updateCurrDst(17900)
updateCurrDst(17963)
updateCurrDst(18023)
updateCurrDst(18049)
updateCurrDst(18128)
updateCurrDst(18182)
updateCurrDst(18289)
updateCurrDst(18469)
updateCurrDst(18589)
updateCurrDst(18606)
updateCurrDst(18656)
Heartbeat CPU 0 instructions: 11000000 cycles: 3563706 heartbeat IPC: 3.13646 cumulative IPC: 3.08667 (Simulation time: 0 hr 0 min 41 sec) 
updateCurrDst(18744)
updateCurrDst(18751)
updateCurrDst(18790)
updateCurrDst(18988)
updateCurrDst(19098)
updateCurrDst(19172)
updateCurrDst(19218)
updateCurrDst(19271)
updateCurrDst(19328)
updateCurrDst(19444)
updateCurrDst(19561)
updateCurrDst(19649)
updateCurrDst(19738)
updateCurrDst(19857)
updateCurrDst(20028)
updateCurrDst(20107)
updateCurrDst(20134)
updateCurrDst(20229)
updateCurrDst(20351)
Heartbeat CPU 0 instructions: 12000001 cycles: 3874700 heartbeat IPC: 3.2155 cumulative IPC: 3.09701 (Simulation time: 0 hr 0 min 45 sec) 
updateCurrDst(20477)
updateCurrDst(20481)
updateCurrDst(20486)
updateCurrDst(20489)
updateCurrDst(20661)
updateCurrDst(20730)
updateCurrDst(20743)
updateCurrDst(20848)
updateCurrDst(20909)
updateCurrDst(21104)
updateCurrDst(21310)
updateCurrDst(21410)
updateCurrDst(21433)
updateCurrDst(21459)
updateCurrDst(21487)
updateCurrDst(21502)
updateCurrDst(21520)
updateCurrDst(21585)
updateCurrDst(21661)
updateCurrDst(21712)
updateCurrDst(21739)
updateCurrDst(21753)
updateCurrDst(21825)
updateCurrDst(21845)
updateCurrDst(21871)
updateCurrDst(21884)
updateCurrDst(22079)
updateCurrDst(22151)
updateCurrDst(22216)
updateCurrDst(22447)
Heartbeat CPU 0 instructions: 13000000 cycles: 4191971 heartbeat IPC: 3.15188 cumulative IPC: 3.10117 (Simulation time: 0 hr 0 min 48 sec) 
updateCurrDst(22578)
updateCurrDst(22605)
updateCurrDst(22672)
updateCurrDst(22688)
updateCurrDst(22784)
updateCurrDst(22853)
updateCurrDst(22950)
updateCurrDst(23145)
updateCurrDst(23160)
updateCurrDst(23277)
updateCurrDst(23305)
updateCurrDst(23324)
updateCurrDst(23415)
updateCurrDst(23418)
updateCurrDst(23465)
updateCurrDst(23493)
updateCurrDst(23720)
updateCurrDst(23736)
updateCurrDst(24050)
updateCurrDst(24092)
updateCurrDst(24252)
updateCurrDst(24258)
updateCurrDst(24278)
updateCurrDst(24366)
updateCurrDst(24551)
updateCurrDst(24570)
Heartbeat CPU 0 instructions: 14000003 cycles: 4509130 heartbeat IPC: 3.153 cumulative IPC: 3.10481 (Simulation time: 0 hr 0 min 52 sec) 
updateCurrDst(24788)
updateCurrDst(24966)
updateCurrDst(25036)
updateCurrDst(25245)
updateCurrDst(25314)
updateCurrDst(25330)
updateCurrDst(25375)
updateCurrDst(25461)
updateCurrDst(25884)
updateCurrDst(25938)
updateCurrDst(25977)
updateCurrDst(26193)
updateCurrDst(26337)
updateCurrDst(26419)
updateCurrDst(26426)
updateCurrDst(26560)
updateCurrDst(26599)
updateCurrDst(26648)
Heartbeat CPU 0 instructions: 15000002 cycles: 4826709 heartbeat IPC: 3.14882 cumulative IPC: 3.10771 (Simulation time: 0 hr 0 min 56 sec) 
updateCurrDst(26807)
updateCurrDst(26982)
updateCurrDst(27095)
updateCurrDst(27343)
updateCurrDst(27756)
updateCurrDst(27803)
updateCurrDst(27817)
updateCurrDst(27866)
updateCurrDst(27876)
updateCurrDst(27890)
updateCurrDst(28191)
updateCurrDst(28209)
updateCurrDst(28335)
updateCurrDst(28647)
updateCurrDst(28714)
updateCurrDst(28768)
Heartbeat CPU 0 instructions: 16000000 cycles: 5142563 heartbeat IPC: 3.16601 cumulative IPC: 3.11129 (Simulation time: 0 hr 0 min 59 sec) 

Warmup complete CPU 0 instructions: 16000004 cycles: 5142564 (Simulation time: 0 hr 0 min 59 sec) 

updateCurrDst(28916)
updateCurrDst(28943)
updateCurrDst(29038)
updateCurrDst(29172)
updateCurrDst(29474)
updateCurrDst(29601)
updateCurrDst(29620)
updateCurrDst(29623)
updateCurrDst(29656)
updateCurrDst(29684)
updateCurrDst(29815)
updateCurrDst(30138)
updateCurrDst(30150)
updateCurrDst(30183)
updateCurrDst(30319)
updateCurrDst(30969)
updateCurrDst(30984)
Heartbeat CPU 0 instructions: 17000000 cycles: 8122962 heartbeat IPC: 0.335526 cumulative IPC: 0.335524 (Simulation time: 0 hr 1 min 3 sec) 
updateCurrDst(31143)
updateCurrDst(31243)
updateCurrDst(31250)
updateCurrDst(31284)
updateCurrDst(31297)
updateCurrDst(31311)
updateCurrDst(31450)
updateCurrDst(31553)
updateCurrDst(31917)
updateCurrDst(32209)
updateCurrDst(32285)
updateCurrDst(32316)
updateCurrDst(32451)
updateCurrDst(32658)
updateCurrDst(32841)
updateCurrDst(32851)
updateCurrDst(32898)
updateCurrDst(32913)
Heartbeat CPU 0 instructions: 18000000 cycles: 11136586 heartbeat IPC: 0.331826 cumulative IPC: 0.333665 (Simulation time: 0 hr 1 min 7 sec) 
updateCurrDst(33190)
updateCurrDst(33210)
updateCurrDst(33243)
updateCurrDst(33446)
updateCurrDst(33453)
updateCurrDst(33482)
updateCurrDst(33550)
updateCurrDst(33771)
updateCurrDst(34042)
updateCurrDst(34182)
updateCurrDst(34195)
updateCurrDst(34414)
updateCurrDst(34515)
updateCurrDst(34572)
updateCurrDst(34702)
updateCurrDst(34706)
updateCurrDst(34998)
updateCurrDst(35156)
Heartbeat CPU 0 instructions: 19000000 cycles: 14156400 heartbeat IPC: 0.331146 cumulative IPC: 0.332821 (Simulation time: 0 hr 1 min 11 sec) 
updateCurrDst(35242)
updateCurrDst(35454)
updateCurrDst(35703)
updateCurrDst(35908)
updateCurrDst(35982)
updateCurrDst(36050)
updateCurrDst(36090)
updateCurrDst(36130)
updateCurrDst(36357)
updateCurrDst(36455)
updateCurrDst(36534)
updateCurrDst(36557)
updateCurrDst(36670)
updateCurrDst(36703)
updateCurrDst(36818)
updateCurrDst(36897)
updateCurrDst(36928)
updateCurrDst(37168)
updateCurrDst(37198)
Heartbeat CPU 0 instructions: 20000001 cycles: 17195494 heartbeat IPC: 0.329046 cumulative IPC: 0.331869 (Simulation time: 0 hr 1 min 15 sec) 
updateCurrDst(37418)
updateCurrDst(37904)
updateCurrDst(38067)
updateCurrDst(38085)
updateCurrDst(38087)
updateCurrDst(38101)
updateCurrDst(38554)
updateCurrDst(38567)
updateCurrDst(38635)
updateCurrDst(38765)
updateCurrDst(38858)
updateCurrDst(38998)
updateCurrDst(39149)
Heartbeat CPU 0 instructions: 21000002 cycles: 20246957 heartbeat IPC: 0.327712 cumulative IPC: 0.331029 (Simulation time: 0 hr 1 min 19 sec) 
updateCurrDst(39451)
updateCurrDst(39461)
updateCurrDst(39608)
updateCurrDst(39722)
updateCurrDst(39865)
updateCurrDst(39970)
updateCurrDst(39982)
updateCurrDst(40055)
updateCurrDst(40240)
updateCurrDst(40338)
updateCurrDst(40429)
updateCurrDst(40519)
updateCurrDst(40520)
updateCurrDst(40542)
updateCurrDst(40589)
updateCurrDst(40912)
updateCurrDst(40981)
updateCurrDst(41244)
updateCurrDst(41307)
Heartbeat CPU 0 instructions: 22000000 cycles: 23290361 heartbeat IPC: 0.328579 cumulative IPC: 0.330618 (Simulation time: 0 hr 1 min 23 sec) 
updateCurrDst(41502)
updateCurrDst(41640)
updateCurrDst(41741)
updateCurrDst(41752)
updateCurrDst(41833)
updateCurrDst(41900)
updateCurrDst(41970)
updateCurrDst(41984)
updateCurrDst(41992)
updateCurrDst(42332)
updateCurrDst(42457)
updateCurrDst(42769)
updateCurrDst(43154)
updateCurrDst(43296)
updateCurrDst(43313)
updateCurrDst(43328)
updateCurrDst(43464)
Heartbeat CPU 0 instructions: 23000001 cycles: 26332554 heartbeat IPC: 0.328711 cumulative IPC: 0.330345 (Simulation time: 0 hr 1 min 27 sec) 
updateCurrDst(43724)
updateCurrDst(43772)
updateCurrDst(43863)
updateCurrDst(43878)
updateCurrDst(43882)
updateCurrDst(43910)
updateCurrDst(43955)
updateCurrDst(43976)
updateCurrDst(44307)
updateCurrDst(44383)
updateCurrDst(44457)
updateCurrDst(44492)
updateCurrDst(44583)
updateCurrDst(45024)
updateCurrDst(45143)
updateCurrDst(45145)
updateCurrDst(45178)
updateCurrDst(45330)
updateCurrDst(45338)
updateCurrDst(45667)
Heartbeat CPU 0 instructions: 24000001 cycles: 29368964 heartbeat IPC: 0.329336 cumulative IPC: 0.330218 (Simulation time: 0 hr 1 min 31 sec) 
updateCurrDst(45823)
updateCurrDst(45879)
updateCurrDst(45908)
updateCurrDst(45911)
updateCurrDst(46018)
updateCurrDst(46047)
updateCurrDst(46064)
updateCurrDst(46126)
updateCurrDst(46174)
updateCurrDst(46184)
updateCurrDst(46386)
updateCurrDst(46534)
updateCurrDst(46646)
updateCurrDst(46738)
updateCurrDst(46759)
updateCurrDst(46787)
updateCurrDst(46864)
updateCurrDst(46881)
updateCurrDst(47019)
updateCurrDst(47088)
updateCurrDst(47092)
updateCurrDst(47120)
updateCurrDst(47284)
updateCurrDst(47466)
updateCurrDst(47492)
updateCurrDst(47504)
updateCurrDst(47543)
updateCurrDst(47590)
updateCurrDst(47690)
updateCurrDst(47702)
updateCurrDst(47826)
Heartbeat CPU 0 instructions: 25000002 cycles: 32414921 heartbeat IPC: 0.328304 cumulative IPC: 0.330004 (Simulation time: 0 hr 1 min 37 sec) 
updateCurrDst(48212)
updateCurrDst(48546)
updateCurrDst(48697)
updateCurrDst(48701)
updateCurrDst(48783)
updateCurrDst(48797)
updateCurrDst(48824)
updateCurrDst(48938)
updateCurrDst(49154)
updateCurrDst(49223)
updateCurrDst(49323)
updateCurrDst(49513)
updateCurrDst(49638)
updateCurrDst(49783)
updateCurrDst(49801)
updateCurrDst(49873)
updateCurrDst(50015)
updateCurrDst(50029)
updateCurrDst(50123)
Heartbeat CPU 0 instructions: 26000000 cycles: 35438790 heartbeat IPC: 0.330702 cumulative IPC: 0.330074 (Simulation time: 0 hr 1 min 42 sec) 
updateCurrDst(50384)
updateCurrDst(50460)
updateCurrDst(50475)
updateCurrDst(50650)
updateCurrDst(50858)
updateCurrDst(50859)
updateCurrDst(50905)
updateCurrDst(50913)
updateCurrDst(50968)
updateCurrDst(50999)
updateCurrDst(51007)
updateCurrDst(51077)
updateCurrDst(51188)
updateCurrDst(51298)
updateCurrDst(51452)
updateCurrDst(51489)
updateCurrDst(51563)
updateCurrDst(51632)
updateCurrDst(51900)
updateCurrDst(52064)
updateCurrDst(52081)
updateCurrDst(52196)
Heartbeat CPU 0 instructions: 27000000 cycles: 38466901 heartbeat IPC: 0.330239 cumulative IPC: 0.330089 (Simulation time: 0 hr 1 min 46 sec) 
updateCurrDst(52481)
updateCurrDst(52537)
updateCurrDst(52983)
updateCurrDst(53111)
updateCurrDst(53204)
updateCurrDst(53217)
updateCurrDst(53340)
updateCurrDst(53611)
updateCurrDst(53785)
updateCurrDst(53828)
updateCurrDst(53851)
updateCurrDst(53939)
updateCurrDst(54009)
updateCurrDst(54102)
updateCurrDst(54198)
updateCurrDst(54220)
updateCurrDst(54250)
updateCurrDst(54367)
Heartbeat CPU 0 instructions: 28000001 cycles: 41509522 heartbeat IPC: 0.328664 cumulative IPC: 0.32997 (Simulation time: 0 hr 1 min 50 sec) 
updateCurrDst(54564)
updateCurrDst(54671)
updateCurrDst(54805)
updateCurrDst(54982)
updateCurrDst(55205)
updateCurrDst(55356)
updateCurrDst(55439)
updateCurrDst(55493)
updateCurrDst(55514)
updateCurrDst(55647)
updateCurrDst(55792)
updateCurrDst(55815)
updateCurrDst(55840)
updateCurrDst(55892)
updateCurrDst(56158)
updateCurrDst(56412)
updateCurrDst(56504)
updateCurrDst(56591)
Heartbeat CPU 0 instructions: 29000000 cycles: 44549386 heartbeat IPC: 0.328962 cumulative IPC: 0.329892 (Simulation time: 0 hr 1 min 55 sec) 
updateCurrDst(56659)
updateCurrDst(56671)
updateCurrDst(56737)
updateCurrDst(56908)
updateCurrDst(57095)
updateCurrDst(57117)
updateCurrDst(57193)
updateCurrDst(57254)
updateCurrDst(57334)
updateCurrDst(57336)
updateCurrDst(57438)
updateCurrDst(57594)
updateCurrDst(57780)
updateCurrDst(57926)
updateCurrDst(57976)
updateCurrDst(57988)
updateCurrDst(58009)
updateCurrDst(58262)
updateCurrDst(58422)
updateCurrDst(58466)
updateCurrDst(58472)
updateCurrDst(58545)
updateCurrDst(58609)
Heartbeat CPU 0 instructions: 30000000 cycles: 47586816 heartbeat IPC: 0.329226 cumulative IPC: 0.329844 (Simulation time: 0 hr 2 min 1 sec) 
updateCurrDst(58713)
updateCurrDst(58743)
updateCurrDst(58765)
updateCurrDst(58899)
updateCurrDst(58976)
updateCurrDst(59041)
updateCurrDst(59047)
updateCurrDst(59174)
updateCurrDst(59179)
updateCurrDst(59226)
updateCurrDst(59259)
updateCurrDst(59641)
updateCurrDst(59759)
updateCurrDst(59768)
updateCurrDst(60101)
updateCurrDst(60162)
updateCurrDst(60169)
updateCurrDst(60355)
updateCurrDst(60407)
updateCurrDst(60444)
updateCurrDst(60448)
updateCurrDst(60613)
updateCurrDst(60639)
updateCurrDst(60853)
updateCurrDst(60930)
Heartbeat CPU 0 instructions: 31000000 cycles: 50623618 heartbeat IPC: 0.329294 cumulative IPC: 0.329808 (Simulation time: 0 hr 2 min 7 sec) 
updateCurrDst(61036)
updateCurrDst(61184)
updateCurrDst(61217)
updateCurrDst(61271)
updateCurrDst(61317)
updateCurrDst(61338)
updateCurrDst(61343)
updateCurrDst(61480)
updateCurrDst(61494)
updateCurrDst(61614)
updateCurrDst(62293)
updateCurrDst(62313)
updateCurrDst(62404)
updateCurrDst(62516)
updateCurrDst(62524)
updateCurrDst(62591)
updateCurrDst(62653)
updateCurrDst(62698)
updateCurrDst(62709)
updateCurrDst(62888)
updateCurrDst(62898)
updateCurrDst(63098)
*** Reached end of trace for Core: 0 Repeating trace: tracer/pull_g16_k3.xzafter: 32000000
Heartbeat CPU 0 instructions: 32000001 cycles: 53658115 heartbeat IPC: 0.329544 cumulative IPC: 0.329791 (Simulation time: 0 hr 2 min 11 sec) 
Finished CPU 0 instructions: 16000001 cycles: 48515552 cumulative IPC: 0.329791 (Simulation time: 0 hr 2 min 11 sec) 

ChampSim completed all CPUs

Region of Interest Statistics

CPU 0 cumulative IPC: 0.329791 instructions: 16000001 cycles: 48515552

Total ROB STALLS:                    6533442
STLB MISS ROB STALLS:                    190
L1D  LOAD MISS ROB STALLS:            145437  Translation MISS ROB STALLS:             0
L2C  LOAD MISS ROB STALLS:             20261  Translation MISS ROB STALLS:             0
LLC  LOAD MISS ROB STALLS:             16298  Translation MISS ROB STALLS:             0

ITLB TOTAL     ACCESS:           2181512  HIT:    2181512  MISS:          0  HIT %:        100  MISS %:          0   MPKI: 0
ITLB LOAD TRANSLATION ACCESS:    2181512  HIT:    2181512  MISS:          0  HIT %:        100  MISS %:          0   MPKI: 0
ITLB AVERAGE MISS LATENCY:          -nan cycles
ITLB RQ ACCESS:     2388056	FORWARD:           0	MERGED:       206545	TO_CACHE:    2181511

DTLB TOTAL     ACCESS:           4773572  HIT:    4758823  MISS:      14749  HIT %:     99.691  MISS %:   0.308972   MPKI: 0.921812
DTLB LOAD TRANSLATION ACCESS:    4773572  HIT:    4758823  MISS:      14749  HIT %:     99.691  MISS %:   0.308972   MPKI: 0.921812
DTLB AVERAGE MISS LATENCY:       12.2334 cycles
DTLB RQ ACCESS:     6476362	FORWARD:           0	MERGED:      1702789	TO_CACHE:    4773573

STLB TOTAL     ACCESS:             14749  HIT:      14559  MISS:        190  HIT %:    98.7118  MISS %:    1.28822   MPKI: 0.011875
STLB LOAD TRANSLATION ACCESS:      14749  HIT:      14559  MISS:        190  HIT %:    98.7118  MISS %:    1.28822   MPKI: 0.011875
STLB AVERAGE MISS LATENCY:           251 cycles
STLB RQ ACCESS:       14749	FORWARD:           0	MERGED:            0	TO_CACHE:      14749

PSCL5 TOTAL     ACCESS:               190  HIT:        190  MISS:          0  HIT %:        100  MISS %:          0   MPKI: 0
PSCL5 LOAD TRANSLATION ACCESS:        190  HIT:        190  MISS:          0  HIT %:        100  MISS %:          0   MPKI: 0

PSCL4 TOTAL     ACCESS:               190  HIT:        190  MISS:          0  HIT %:        100  MISS %:          0   MPKI: 0
PSCL4 LOAD TRANSLATION ACCESS:        190  HIT:        190  MISS:          0  HIT %:        100  MISS %:          0   MPKI: 0

PSCL3 TOTAL     ACCESS:               190  HIT:        190  MISS:          0  HIT %:        100  MISS %:          0   MPKI: 0
PSCL3 LOAD TRANSLATION ACCESS:        190  HIT:        190  MISS:          0  HIT %:        100  MISS %:          0   MPKI: 0

PSCL2 TOTAL     ACCESS:               190  HIT:        190  MISS:          0  HIT %:        100  MISS %:          0   MPKI: 0
PSCL2 LOAD TRANSLATION ACCESS:        190  HIT:        190  MISS:          0  HIT %:        100  MISS %:          0   MPKI: 0

L1D TOTAL     ACCESS:           6476297  HIT:    6330827  MISS:     145470  HIT %:    97.7538  MISS %:    2.24619   MPKI: 9.09187  USED:      50365  UNUSED:      95105
L1D LOAD      ACCESS:           2786538  HIT:    2641095  MISS:     145443  HIT %:    94.7805  MISS %:    5.21949   MPKI: 9.09019  USED:      50338  UNUSED:      95105
L1D RFO       ACCESS:           3689759  HIT:    3689732  MISS:         27  HIT %:    99.9993  MISS %: 0.000731755   MPKI: 0.0016875
L1D PTL1 TRANSLATION ACCESS:          0  HIT:          0  MISS:          0  HIT %:       -nan  MISS %:       -nan   MPKI: 0
L1D PTL2 TRANSLATION ACCESS:          0  HIT:          0  MISS:          0  HIT %:       -nan  MISS %:       -nan   MPKI: 0
L1D PTL3 TRANSLATION ACCESS:          0  HIT:          0  MISS:          0  HIT %:       -nan  MISS %:       -nan   MPKI: 0
L1D PTL4 TRANSLATION ACCESS:          0  HIT:          0  MISS:          0  HIT %:       -nan  MISS %:       -nan   MPKI: 0
L1D PTL5 TRANSLATION ACCESS:          0  HIT:          0  MISS:          0  HIT %:       -nan  MISS %:       -nan   MPKI: 0
L1D TOTAL EVICTIONS:             145470  TRANSLATION EVICTIONS:          0  TRANSLATION EVICTING TRANSALTION:          0  TRANSLATION EVICTING LOAD:          0  LOAD EVICTING TRANSALTION:          0  LOAD EVICTING LOAD:      145416
L1D AVERAGE MISS LATENCY:       34.1017 cycles  AVERAGE LOAD MISS LATENCY:       34.1052 cycles  AVERAGE LOAD TRANSLATION MISS LATENCY:          -nan cycles
L1D RQ ACCESS:     4073067	FORWARD:           0	MERGED:       854793	TO_CACHE:    2786538
L1D WQ ACCESS:     3693204	FORWARD:      431736	MERGED:         3380	TO_CACHE:    3689824

L1I TOTAL     ACCESS:           2388057  HIT:    2388057  MISS:          0  HIT %:        100  MISS %:          0   MPKI: 0
L1I LOAD      ACCESS:           2388057  HIT:    2388057  MISS:          0  HIT %:        100  MISS %:          0   MPKI: 0
L1I AVERAGE MISS LATENCY:          -nan cycles
L1I RQ ACCESS:     3768387	FORWARD:           0	MERGED:      1380331	TO_CACHE:    2388056

L2C TOTAL     ACCESS:            147651  HIT:     127382  MISS:      20269  HIT %:    86.2724  MISS %:    13.7276   MPKI: 1.26681  USED:       1473  UNUSED:      18796
L2C LOAD      ACCESS:            145443  HIT:     125181  MISS:      20262  HIT %:    86.0688  MISS %:    13.9312   MPKI: 1.26637  USED:       1235  UNUSED:      18796
L2C RFO       ACCESS:                27  HIT:         27  MISS:          0  HIT %:        100  MISS %:          0   MPKI: 0
L2C WRITEBACK ACCESS:              2181  HIT:       2174  MISS:          7  HIT %:     99.679  MISS %:   0.320954   MPKI: 0.0004375
L2C PTL1 TRANSLATION ACCESS:          0  HIT:          0  MISS:          0  HIT %:       -nan  MISS %:       -nan   MPKI: 0
L2C PTL2 TRANSLATION ACCESS:          0  HIT:          0  MISS:          0  HIT %:       -nan  MISS %:       -nan   MPKI: 0
L2C PTL3 TRANSLATION ACCESS:          0  HIT:          0  MISS:          0  HIT %:       -nan  MISS %:       -nan   MPKI: 0
L2C PTL4 TRANSLATION ACCESS:          0  HIT:          0  MISS:          0  HIT %:       -nan  MISS %:       -nan   MPKI: 0
L2C PTL5 TRANSLATION ACCESS:          0  HIT:          0  MISS:          0  HIT %:       -nan  MISS %:       -nan   MPKI: 0
L2C TOTAL EVICTIONS:              20269  TRANSLATION EVICTIONS:          0  TRANSLATION EVICTING TRANSALTION:          0  TRANSLATION EVICTING LOAD:          0  LOAD EVICTING TRANSALTION:          0  LOAD EVICTING LOAD:       20024
L2C AVERAGE MISS LATENCY:       137.092 cycles  AVERAGE LOAD MISS LATENCY:       137.139 cycles  AVERAGE LOAD TRANSLATION MISS LATENCY:          -nan cycles
L2C RQ ACCESS:      145470	FORWARD:           0	MERGED:            0	TO_CACHE:     145470
L2C WQ ACCESS:        2181	FORWARD:           0	MERGED:            0	TO_CACHE:       2181

LLC TOTAL     ACCESS:             22629  HIT:       6251  MISS:      16378  HIT %:    27.6238  MISS %:    72.3762   MPKI: 1.02362  USED:          0  UNUSED:          0
LLC LOAD      ACCESS:             20262  HIT:       3964  MISS:      16298  HIT %:    19.5637  MISS %:    80.4363   MPKI: 1.01862  USED:          0  UNUSED:          0
LLC WRITEBACK ACCESS:              2367  HIT:       2287  MISS:         80  HIT %:    96.6202  MISS %:    3.37981   MPKI: 0.005
LLC PTL1 TRANSLATION ACCESS:          0  HIT:          0  MISS:          0  HIT %:       -nan  MISS %:       -nan   MPKI: 0
LLC PTL2 TRANSLATION ACCESS:          0  HIT:          0  MISS:          0  HIT %:       -nan  MISS %:       -nan   MPKI: 0
LLC PTL3 TRANSLATION ACCESS:          0  HIT:          0  MISS:          0  HIT %:       -nan  MISS %:       -nan   MPKI: 0
LLC PTL4 TRANSLATION ACCESS:          0  HIT:          0  MISS:          0  HIT %:       -nan  MISS %:       -nan   MPKI: 0
LLC PTL5 TRANSLATION ACCESS:          0  HIT:          0  MISS:          0  HIT %:       -nan  MISS %:       -nan   MPKI: 0
LLC TOTAL EVICTIONS:                  0  TRANSLATION EVICTIONS:          0  TRANSLATION EVICTING TRANSALTION:          0  TRANSLATION EVICTING LOAD:          0  LOAD EVICTING TRANSALTION:          0  LOAD EVICTING LOAD:           0
LLC AVERAGE MISS LATENCY:       132.547 cycles  AVERAGE LOAD MISS LATENCY:       133.198 cycles  AVERAGE LOAD TRANSLATION MISS LATENCY:          -nan cycles
LLC RQ ACCESS:       20262	FORWARD:           0	MERGED:            0	TO_CACHE:      20262
LLC WQ ACCESS:        2367	FORWARD:           0	MERGED:            0	TO_CACHE:       2367


RAW hits: 2705324
Loads Generated: 6778391
Loads sent to L1D: 4073067
Stores Generated: 3693202
Stores sent to L1D: 3693204
Major fault: 0 Minor fault: 830
Allocated PAGES: 830
IRREG DATA L1D ACCESS: 361361

DRAM Statistics
 CHANNEL 0
 RQ ROW_BUFFER_HIT:       5998  ROW_BUFFER_MISS:      10490
 DBUS_CONGESTED:          0
 WQ ROW_BUFFER_HIT:          0  ROW_BUFFER_MISS:       5192  FULL:          0

 AVG_CONGESTED_CYCLE: -

CPU 0 Branch Prediction Accuracy: 98.3335% MPKI: 2.04269 Average ROB Occupancy at Mispredict: 13.1367
Branch types
NOT_BRANCH: 14038398 87.74%
BRANCH_DIRECT_JUMP: 0 0%
BRANCH_INDIRECT: 229337 1.43336%
BRANCH_CONDITIONAL: 0 0%
BRANCH_DIRECT_CALL: 34424 0.21515%
BRANCH_INDIRECT_CALL: 665216 4.1576%
BRANCH_RETURN: 699642 4.37276%
BRANCH_OTHER: 332608 2.0788%

DRAM PAGES: 1048576
Allocated PAGES: 830
