
*** ChampSim Multicore Out-of-Order Simulator ***

Warmup Instructions: 16000000
Simulation Instructions: 16000000
Number of CPUs: 1
LLC sets: 2048
LLC ways: 16
Off-chip DRAM Size: 4096 MB Channels: 1 Width: 64-bit Data Rate: 6400 MT/s
CPU 0 runs tracer/pull_g16_k3.xz
.xz
BTB has LRU replacement policy
ITLB has LRU replacement policy
DTLB has LRU replacement policy
STLB has LRU replacement policy
L1I has LRU replacement policy
L1D has LRU replacement policy
L2C has LRU replacement policy
Initialize DRRIP state for LLC
Heartbeat CPU 0 instructions: 1000002 cycles: 350514 heartbeat IPC: 2.85296 cumulative IPC: 2.85296 (Simulation time: 0 hr 0 min 3 sec) 
PIN_registerGraphs(test_g16_k3.sg,1)
Graphh Number of Nodes: 65535
Heartbeat CPU 0 instructions: 2000001 cycles: 690802 heartbeat IPC: 2.93868 cumulative IPC: 2.89519 (Simulation time: 0 hr 0 min 6 sec) 
PIN_updateRegBaseBound( 94047396556944, 94047396819084)
updateCurrDst(276)
updateCurrDst(382)
updateCurrDst(390)
updateCurrDst(687)
updateCurrDst(703)
updateCurrDst(826)
updateCurrDst(1013)
updateCurrDst(1052)
updateCurrDst(1148)
Heartbeat CPU 0 instructions: 3000001 cycles: 1016210 heartbeat IPC: 3.07307 cumulative IPC: 2.95215 (Simulation time: 0 hr 0 min 9 sec) 
updateCurrDst(1299)
updateCurrDst(1312)
updateCurrDst(1322)
updateCurrDst(1374)
updateCurrDst(1535)
updateCurrDst(1713)
updateCurrDst(1722)
updateCurrDst(2038)
updateCurrDst(2200)
updateCurrDst(2217)
updateCurrDst(2369)
updateCurrDst(2373)
updateCurrDst(2471)
updateCurrDst(2516)
updateCurrDst(2526)
updateCurrDst(2585)
updateCurrDst(2639)
updateCurrDst(2697)
updateCurrDst(2702)
updateCurrDst(2708)
updateCurrDst(2738)
updateCurrDst(2856)
updateCurrDst(3064)
updateCurrDst(3107)
Heartbeat CPU 0 instructions: 4000003 cycles: 1330799 heartbeat IPC: 3.17876 cumulative IPC: 3.00572 (Simulation time: 0 hr 0 min 13 sec) 
updateCurrDst(3152)
updateCurrDst(3173)
updateCurrDst(3209)
updateCurrDst(3296)
updateCurrDst(3433)
updateCurrDst(3471)
updateCurrDst(3597)
updateCurrDst(3694)
updateCurrDst(3829)
updateCurrDst(3831)
updateCurrDst(3853)
updateCurrDst(3897)
updateCurrDst(4025)
updateCurrDst(4112)
updateCurrDst(4212)
updateCurrDst(4295)
updateCurrDst(4566)
updateCurrDst(4573)
updateCurrDst(4735)
updateCurrDst(4751)
updateCurrDst(4769)
updateCurrDst(4793)
updateCurrDst(4930)
updateCurrDst(5127)
updateCurrDst(5294)
updateCurrDst(5395)
updateCurrDst(5424)
Heartbeat CPU 0 instructions: 5000003 cycles: 1650878 heartbeat IPC: 3.12423 cumulative IPC: 3.02869 (Simulation time: 0 hr 0 min 17 sec) 
updateCurrDst(5672)
updateCurrDst(5731)
updateCurrDst(5756)
updateCurrDst(5881)
updateCurrDst(6038)
updateCurrDst(6253)
updateCurrDst(6327)
updateCurrDst(6328)
updateCurrDst(6415)
updateCurrDst(6463)
updateCurrDst(6886)
updateCurrDst(6948)
updateCurrDst(6981)
updateCurrDst(7026)
updateCurrDst(7030)
updateCurrDst(7104)
updateCurrDst(7119)
updateCurrDst(7189)
updateCurrDst(7196)
updateCurrDst(7655)
Heartbeat CPU 0 instructions: 6000000 cycles: 1970055 heartbeat IPC: 3.13305 cumulative IPC: 3.0456 (Simulation time: 0 hr 0 min 23 sec) 
updateCurrDst(7749)
updateCurrDst(7786)
updateCurrDst(7819)
updateCurrDst(8211)
updateCurrDst(8287)
updateCurrDst(8301)
updateCurrDst(8512)
updateCurrDst(8576)
updateCurrDst(8700)
updateCurrDst(8727)
updateCurrDst(9041)
updateCurrDst(9308)
updateCurrDst(9368)
updateCurrDst(9385)
updateCurrDst(9545)
updateCurrDst(9761)
updateCurrDst(9765)
Heartbeat CPU 0 instructions: 7000000 cycles: 2290705 heartbeat IPC: 3.11867 cumulative IPC: 3.05583 (Simulation time: 0 hr 0 min 27 sec) 
updateCurrDst(10029)
updateCurrDst(10265)
updateCurrDst(10274)
updateCurrDst(10495)
updateCurrDst(10525)
updateCurrDst(10721)
updateCurrDst(10757)
updateCurrDst(10951)
updateCurrDst(11010)
updateCurrDst(11020)
updateCurrDst(11120)
updateCurrDst(11201)
updateCurrDst(11260)
updateCurrDst(11484)
updateCurrDst(11556)
updateCurrDst(11719)
updateCurrDst(11743)
updateCurrDst(11861)
updateCurrDst(11894)
updateCurrDst(12137)
updateCurrDst(12198)
Heartbeat CPU 0 instructions: 8000001 cycles: 2609668 heartbeat IPC: 3.13516 cumulative IPC: 3.06552 (Simulation time: 0 hr 0 min 34 sec) 
updateCurrDst(12310)
updateCurrDst(12342)
updateCurrDst(12382)
updateCurrDst(12506)
updateCurrDst(12678)
updateCurrDst(12722)
updateCurrDst(12910)
updateCurrDst(12927)
updateCurrDst(12931)
updateCurrDst(13080)
updateCurrDst(13164)
updateCurrDst(13352)
updateCurrDst(13405)
updateCurrDst(13441)
updateCurrDst(13451)
updateCurrDst(13566)
updateCurrDst(13775)
updateCurrDst(13863)
updateCurrDst(14072)
updateCurrDst(14258)
updateCurrDst(14326)
Heartbeat CPU 0 instructions: 9000001 cycles: 2926334 heartbeat IPC: 3.1579 cumulative IPC: 3.07552 (Simulation time: 0 hr 0 min 38 sec) 
updateCurrDst(14660)
updateCurrDst(14665)
updateCurrDst(14704)
updateCurrDst(15159)
updateCurrDst(15265)
updateCurrDst(15313)
updateCurrDst(15401)
updateCurrDst(15422)
updateCurrDst(15634)
updateCurrDst(15713)
updateCurrDst(15812)
updateCurrDst(15841)
updateCurrDst(15886)
updateCurrDst(16030)
updateCurrDst(16103)
updateCurrDst(16215)
updateCurrDst(16225)
updateCurrDst(16282)
updateCurrDst(16401)
updateCurrDst(16412)
updateCurrDst(16481)
Heartbeat CPU 0 instructions: 10000001 cycles: 3244736 heartbeat IPC: 3.14068 cumulative IPC: 3.08192 (Simulation time: 0 hr 0 min 42 sec) 
updateCurrDst(16543)
updateCurrDst(16563)
updateCurrDst(16630)
updateCurrDst(16701)
updateCurrDst(16715)
updateCurrDst(16719)
updateCurrDst(16869)
updateCurrDst(16912)
updateCurrDst(17124)
updateCurrDst(17261)
updateCurrDst(17310)
updateCurrDst(17471)
updateCurrDst(17520)
updateCurrDst(17595)
updateCurrDst(17761)
updateCurrDst(17825)
updateCurrDst(17878)
updateCurrDst(17882)
updateCurrDst(18250)
updateCurrDst(18343)
updateCurrDst(18353)
updateCurrDst(18442)
updateCurrDst(18472)
updateCurrDst(18660)
updateCurrDst(18723)
Heartbeat CPU 0 instructions: 11000000 cycles: 3563550 heartbeat IPC: 3.13662 cumulative IPC: 3.08681 (Simulation time: 0 hr 0 min 46 sec) 
updateCurrDst(18749)
updateCurrDst(18970)
updateCurrDst(19075)
updateCurrDst(19152)
updateCurrDst(19155)
updateCurrDst(19337)
updateCurrDst(19364)
updateCurrDst(19525)
updateCurrDst(19632)
updateCurrDst(19763)
updateCurrDst(19816)
updateCurrDst(19826)
updateCurrDst(19964)
Heartbeat CPU 0 instructions: 12000001 cycles: 3874508 heartbeat IPC: 3.21587 cumulative IPC: 3.09717 (Simulation time: 0 hr 0 min 51 sec) 
updateCurrDst(20469)
updateCurrDst(20479)
updateCurrDst(20587)
updateCurrDst(20599)
updateCurrDst(20616)
updateCurrDst(21144)
updateCurrDst(21342)
updateCurrDst(21376)
updateCurrDst(21538)
updateCurrDst(21545)
updateCurrDst(21828)
updateCurrDst(21897)
updateCurrDst(22006)
updateCurrDst(22047)
updateCurrDst(22159)
updateCurrDst(22183)
updateCurrDst(22238)
Heartbeat CPU 0 instructions: 13000000 cycles: 4191756 heartbeat IPC: 3.15211 cumulative IPC: 3.10133 (Simulation time: 0 hr 0 min 56 sec) 
updateCurrDst(22767)
updateCurrDst(22843)
updateCurrDst(23116)
updateCurrDst(23185)
updateCurrDst(23306)
updateCurrDst(23312)
updateCurrDst(23360)
updateCurrDst(23418)
updateCurrDst(23528)
updateCurrDst(23579)
updateCurrDst(23597)
updateCurrDst(23628)
updateCurrDst(23775)
updateCurrDst(24020)
updateCurrDst(24053)
updateCurrDst(24155)
updateCurrDst(24386)
updateCurrDst(24446)
Heartbeat CPU 0 instructions: 14000003 cycles: 4508895 heartbeat IPC: 3.1532 cumulative IPC: 3.10497 (Simulation time: 0 hr 1 min 0 sec) 
updateCurrDst(25265)
updateCurrDst(25371)
updateCurrDst(25477)
updateCurrDst(25516)
updateCurrDst(25601)
updateCurrDst(25825)
updateCurrDst(25832)
updateCurrDst(25886)
updateCurrDst(25899)
updateCurrDst(25956)
updateCurrDst(25957)
updateCurrDst(26070)
updateCurrDst(26081)
updateCurrDst(26176)
updateCurrDst(26184)
updateCurrDst(26477)
updateCurrDst(26646)
updateCurrDst(26662)
Heartbeat CPU 0 instructions: 15000002 cycles: 4826449 heartbeat IPC: 3.14907 cumulative IPC: 3.10788 (Simulation time: 0 hr 1 min 4 sec) 
updateCurrDst(26877)
updateCurrDst(26946)
updateCurrDst(27033)
updateCurrDst(27067)
updateCurrDst(27146)
updateCurrDst(27266)
updateCurrDst(27276)
updateCurrDst(27293)
updateCurrDst(27338)
updateCurrDst(27397)
updateCurrDst(27503)
updateCurrDst(27573)
updateCurrDst(27704)
updateCurrDst(27862)
updateCurrDst(27914)
updateCurrDst(28236)
updateCurrDst(28389)
updateCurrDst(28478)
updateCurrDst(28793)
Heartbeat CPU 0 instructions: 16000000 cycles: 5142305 heartbeat IPC: 3.16599 cumulative IPC: 3.11145 (Simulation time: 0 hr 1 min 10 sec) 

Warmup complete CPU 0 instructions: 16000004 cycles: 5142306 (Simulation time: 0 hr 1 min 10 sec) 

updateCurrDst(29720)
updateCurrDst(29736)
updateCurrDst(29758)
updateCurrDst(29759)
updateCurrDst(29793)
updateCurrDst(29886)
updateCurrDst(29987)
updateCurrDst(30041)
updateCurrDst(30083)
updateCurrDst(30233)
updateCurrDst(30266)
updateCurrDst(30358)
updateCurrDst(30361)
updateCurrDst(30544)
updateCurrDst(30665)
updateCurrDst(30822)
updateCurrDst(30943)
updateCurrDst(30965)
Heartbeat CPU 0 instructions: 17000000 cycles: 8089275 heartbeat IPC: 0.339332 cumulative IPC: 0.33933 (Simulation time: 0 hr 1 min 15 sec) 
updateCurrDst(31484)
updateCurrDst(31697)
updateCurrDst(31727)
updateCurrDst(31810)
updateCurrDst(32012)
updateCurrDst(32147)
updateCurrDst(32295)
updateCurrDst(32463)
updateCurrDst(32547)
updateCurrDst(32583)
updateCurrDst(32723)
updateCurrDst(32853)
updateCurrDst(32855)
updateCurrDst(33026)
updateCurrDst(33088)
Heartbeat CPU 0 instructions: 18000000 cycles: 11056043 heartbeat IPC: 0.337067 cumulative IPC: 0.338195 (Simulation time: 0 hr 1 min 19 sec) 
updateCurrDst(33226)
updateCurrDst(33448)
updateCurrDst(33480)
updateCurrDst(33547)
updateCurrDst(33718)
updateCurrDst(33747)
updateCurrDst(33781)
updateCurrDst(33839)
updateCurrDst(33904)
updateCurrDst(33916)
updateCurrDst(33983)
updateCurrDst(34077)
updateCurrDst(34097)
updateCurrDst(34105)
updateCurrDst(34131)
updateCurrDst(34163)
updateCurrDst(34202)
updateCurrDst(34255)
updateCurrDst(34425)
updateCurrDst(34482)
updateCurrDst(34793)
updateCurrDst(34823)
updateCurrDst(34838)
updateCurrDst(35045)
updateCurrDst(35131)
Heartbeat CPU 0 instructions: 19000000 cycles: 14009528 heartbeat IPC: 0.338583 cumulative IPC: 0.338324 (Simulation time: 0 hr 1 min 24 sec) 
updateCurrDst(35271)
updateCurrDst(35285)
updateCurrDst(35416)
updateCurrDst(35460)
updateCurrDst(35610)
updateCurrDst(35690)
updateCurrDst(35781)
updateCurrDst(35803)
updateCurrDst(35929)
updateCurrDst(36098)
updateCurrDst(36178)
updateCurrDst(36314)
updateCurrDst(36356)
updateCurrDst(36442)
updateCurrDst(36569)
updateCurrDst(36573)
updateCurrDst(36859)
updateCurrDst(36923)
updateCurrDst(37001)
updateCurrDst(37029)
updateCurrDst(37222)
updateCurrDst(37254)
updateCurrDst(37320)
Heartbeat CPU 0 instructions: 20000001 cycles: 16961424 heartbeat IPC: 0.338766 cumulative IPC: 0.338434 (Simulation time: 0 hr 1 min 28 sec) 
updateCurrDst(37533)
updateCurrDst(37554)
updateCurrDst(37813)
updateCurrDst(37847)
updateCurrDst(37916)
updateCurrDst(38425)
updateCurrDst(38650)
updateCurrDst(38760)
updateCurrDst(38803)
updateCurrDst(38839)
updateCurrDst(39054)
updateCurrDst(39065)
updateCurrDst(39316)
Heartbeat CPU 0 instructions: 21000002 cycles: 19928233 heartbeat IPC: 0.337063 cumulative IPC: 0.338159 (Simulation time: 0 hr 1 min 32 sec) 
updateCurrDst(39509)
updateCurrDst(39542)
updateCurrDst(39607)
updateCurrDst(39613)
updateCurrDst(39787)
updateCurrDst(39794)
updateCurrDst(39902)
updateCurrDst(39959)
updateCurrDst(40131)
updateCurrDst(40155)
updateCurrDst(40359)
updateCurrDst(40579)
updateCurrDst(40586)
updateCurrDst(40721)
updateCurrDst(40808)
updateCurrDst(40904)
updateCurrDst(40938)
updateCurrDst(40963)
updateCurrDst(41067)
updateCurrDst(41173)
updateCurrDst(41276)
Heartbeat CPU 0 instructions: 22000000 cycles: 22886702 heartbeat IPC: 0.338012 cumulative IPC: 0.338135 (Simulation time: 0 hr 1 min 37 sec) 
updateCurrDst(41817)
updateCurrDst(41893)
updateCurrDst(41898)
updateCurrDst(42264)
updateCurrDst(42265)
updateCurrDst(42707)
updateCurrDst(42805)
updateCurrDst(43113)
updateCurrDst(43202)
updateCurrDst(43308)
updateCurrDst(43316)
updateCurrDst(43349)
updateCurrDst(43373)
updateCurrDst(43384)
updateCurrDst(43390)
updateCurrDst(43531)
updateCurrDst(43626)
Heartbeat CPU 0 instructions: 23000001 cycles: 25840324 heartbeat IPC: 0.338568 cumulative IPC: 0.338196 (Simulation time: 0 hr 1 min 41 sec) 
updateCurrDst(43794)
updateCurrDst(43807)
updateCurrDst(44086)
updateCurrDst(44282)
updateCurrDst(44286)
updateCurrDst(44293)
updateCurrDst(44296)
updateCurrDst(44366)
updateCurrDst(44461)
updateCurrDst(44513)
updateCurrDst(44684)
updateCurrDst(44712)
updateCurrDst(44884)
updateCurrDst(44938)
updateCurrDst(45097)
updateCurrDst(45203)
updateCurrDst(45251)
updateCurrDst(45360)
updateCurrDst(45437)
updateCurrDst(45484)
updateCurrDst(45515)
updateCurrDst(45626)
updateCurrDst(45668)
Heartbeat CPU 0 instructions: 24000001 cycles: 28803215 heartbeat IPC: 0.337508 cumulative IPC: 0.33811 (Simulation time: 0 hr 1 min 46 sec) 
updateCurrDst(45762)
updateCurrDst(45803)
updateCurrDst(45952)
updateCurrDst(45977)
updateCurrDst(46166)
updateCurrDst(46423)
updateCurrDst(46560)
updateCurrDst(46861)
updateCurrDst(47080)
updateCurrDst(47246)
updateCurrDst(47439)
updateCurrDst(47532)
updateCurrDst(47658)
updateCurrDst(47673)
updateCurrDst(47801)
Heartbeat CPU 0 instructions: 25000002 cycles: 31756320 heartbeat IPC: 0.338627 cumulative IPC: 0.338168 (Simulation time: 0 hr 1 min 51 sec) 
updateCurrDst(48116)
updateCurrDst(48130)
updateCurrDst(48147)
updateCurrDst(48289)
updateCurrDst(48335)
updateCurrDst(48827)
updateCurrDst(48866)
updateCurrDst(48886)
updateCurrDst(48936)
updateCurrDst(49203)
updateCurrDst(49460)
updateCurrDst(49566)
updateCurrDst(49681)
updateCurrDst(49735)
updateCurrDst(49910)
updateCurrDst(50121)
updateCurrDst(50164)
updateCurrDst(50188)
Heartbeat CPU 0 instructions: 26000000 cycles: 34701659 heartbeat IPC: 0.339519 cumulative IPC: 0.338302 (Simulation time: 0 hr 1 min 55 sec) 
updateCurrDst(50265)
updateCurrDst(50314)
updateCurrDst(50527)
updateCurrDst(50666)
updateCurrDst(50747)
updateCurrDst(50782)
updateCurrDst(50868)
updateCurrDst(50986)
updateCurrDst(51174)
updateCurrDst(51229)
updateCurrDst(51268)
updateCurrDst(51275)
updateCurrDst(51420)
updateCurrDst(51499)
updateCurrDst(51718)
updateCurrDst(51799)
updateCurrDst(51802)
updateCurrDst(51875)
updateCurrDst(51936)
updateCurrDst(52022)
updateCurrDst(52404)
Heartbeat CPU 0 instructions: 27000000 cycles: 37655220 heartbeat IPC: 0.338574 cumulative IPC: 0.338327 (Simulation time: 0 hr 2 min 0 sec) 
updateCurrDst(52554)
updateCurrDst(52743)
updateCurrDst(52829)
updateCurrDst(52903)
updateCurrDst(53051)
updateCurrDst(53177)
updateCurrDst(53227)
updateCurrDst(53356)
updateCurrDst(53565)
updateCurrDst(53568)
updateCurrDst(53602)
updateCurrDst(53899)
updateCurrDst(53971)
updateCurrDst(53989)
updateCurrDst(54040)
updateCurrDst(54099)
updateCurrDst(54128)
updateCurrDst(54192)
updateCurrDst(54212)
updateCurrDst(54339)
Heartbeat CPU 0 instructions: 28000001 cycles: 40621369 heartbeat IPC: 0.337138 cumulative IPC: 0.338228 (Simulation time: 0 hr 2 min 4 sec) 
updateCurrDst(54611)
updateCurrDst(54733)
updateCurrDst(54833)
updateCurrDst(55318)
updateCurrDst(55446)
updateCurrDst(56323)
updateCurrDst(56539)
Heartbeat CPU 0 instructions: 29000000 cycles: 43573452 heartbeat IPC: 0.338744 cumulative IPC: 0.338267 (Simulation time: 0 hr 2 min 11 sec) 
updateCurrDst(56644)
updateCurrDst(56669)
updateCurrDst(56778)
updateCurrDst(56798)
updateCurrDst(56854)
updateCurrDst(56956)
updateCurrDst(57032)
updateCurrDst(57065)
updateCurrDst(57144)
updateCurrDst(57425)
updateCurrDst(57588)
updateCurrDst(57658)
updateCurrDst(57701)
updateCurrDst(57812)
updateCurrDst(57984)
updateCurrDst(58159)
updateCurrDst(58281)
updateCurrDst(58313)
updateCurrDst(58351)
updateCurrDst(58631)
Heartbeat CPU 0 instructions: 30000000 cycles: 46537750 heartbeat IPC: 0.337348 cumulative IPC: 0.338201 (Simulation time: 0 hr 2 min 17 sec) 
updateCurrDst(58775)
updateCurrDst(58990)
updateCurrDst(59262)
updateCurrDst(59333)
updateCurrDst(60013)
updateCurrDst(60045)
updateCurrDst(60261)
updateCurrDst(60484)
updateCurrDst(60496)
updateCurrDst(60765)
updateCurrDst(60870)
updateCurrDst(60916)
Heartbeat CPU 0 instructions: 31000000 cycles: 49488684 heartbeat IPC: 0.338876 cumulative IPC: 0.338246 (Simulation time: 0 hr 2 min 22 sec) 
updateCurrDst(60999)
updateCurrDst(61011)
updateCurrDst(61090)
updateCurrDst(61335)
updateCurrDst(61411)
updateCurrDst(61413)
updateCurrDst(61415)
updateCurrDst(61546)
updateCurrDst(61560)
updateCurrDst(61583)
updateCurrDst(61609)
updateCurrDst(61712)
updateCurrDst(61768)
updateCurrDst(61806)
updateCurrDst(61866)
updateCurrDst(61958)
updateCurrDst(62023)
updateCurrDst(62050)
updateCurrDst(62053)
updateCurrDst(62128)
updateCurrDst(62200)
updateCurrDst(62328)
updateCurrDst(62346)
updateCurrDst(62351)
updateCurrDst(62377)
updateCurrDst(62381)
updateCurrDst(62494)
updateCurrDst(62534)
updateCurrDst(62689)
updateCurrDst(62701)
updateCurrDst(62731)
updateCurrDst(62861)
updateCurrDst(62878)
updateCurrDst(63010)
updateCurrDst(63072)
updateCurrDst(63132)
updateCurrDst(63244)
*** Reached end of trace for Core: 0 Repeating trace: tracer/pull_g16_k3.xzafter: 32000000
Heartbeat CPU 0 instructions: 32000001 cycles: 52431127 heartbeat IPC: 0.339854 cumulative IPC: 0.338346 (Simulation time: 0 hr 2 min 26 sec) 
Finished CPU 0 instructions: 16000001 cycles: 47288822 cumulative IPC: 0.338346 (Simulation time: 0 hr 2 min 26 sec) 

ChampSim completed all CPUs

Region of Interest Statistics

CPU 0 cumulative IPC: 0.338346 instructions: 16000001 cycles: 47288822

Total ROB STALLS:                    6552495
STLB MISS ROB STALLS:                    190
L1D  LOAD MISS ROB STALLS:            145439  Translation MISS ROB STALLS:             0
L2C  LOAD MISS ROB STALLS:             19919  Translation MISS ROB STALLS:             0
LLC  LOAD MISS ROB STALLS:             12224  Translation MISS ROB STALLS:             0

ITLB TOTAL     ACCESS:           2181512  HIT:    2181512  MISS:          0  HIT %:        100  MISS %:          0   MPKI: 0
ITLB LOAD TRANSLATION ACCESS:    2181512  HIT:    2181512  MISS:          0  HIT %:        100  MISS %:          0   MPKI: 0
ITLB AVERAGE MISS LATENCY:          -nan cycles
ITLB RQ ACCESS:     2388056	FORWARD:           0	MERGED:       206545	TO_CACHE:    2181511

DTLB TOTAL     ACCESS:           4773293  HIT:    4758544  MISS:      14749  HIT %:     99.691  MISS %:    0.30899   MPKI: 0.921812
DTLB LOAD TRANSLATION ACCESS:    4773293  HIT:    4758544  MISS:      14749  HIT %:     99.691  MISS %:    0.30899   MPKI: 0.921812
DTLB AVERAGE MISS LATENCY:       12.2334 cycles
DTLB RQ ACCESS:     6479735	FORWARD:           0	MERGED:      1706441	TO_CACHE:    4773294

STLB TOTAL     ACCESS:             14749  HIT:      14559  MISS:        190  HIT %:    98.7118  MISS %:    1.28822   MPKI: 0.011875
STLB LOAD TRANSLATION ACCESS:      14749  HIT:      14559  MISS:        190  HIT %:    98.7118  MISS %:    1.28822   MPKI: 0.011875
STLB AVERAGE MISS LATENCY:           251 cycles
STLB RQ ACCESS:       14749	FORWARD:           0	MERGED:            0	TO_CACHE:      14749

PSCL5 TOTAL     ACCESS:               190  HIT:        190  MISS:          0  HIT %:        100  MISS %:          0   MPKI: 0
PSCL5 LOAD TRANSLATION ACCESS:        190  HIT:        190  MISS:          0  HIT %:        100  MISS %:          0   MPKI: 0

PSCL4 TOTAL     ACCESS:               190  HIT:        190  MISS:          0  HIT %:        100  MISS %:          0   MPKI: 0
PSCL4 LOAD TRANSLATION ACCESS:        190  HIT:        190  MISS:          0  HIT %:        100  MISS %:          0   MPKI: 0

PSCL3 TOTAL     ACCESS:               190  HIT:        190  MISS:          0  HIT %:        100  MISS %:          0   MPKI: 0
PSCL3 LOAD TRANSLATION ACCESS:        190  HIT:        190  MISS:          0  HIT %:        100  MISS %:          0   MPKI: 0

PSCL2 TOTAL     ACCESS:               190  HIT:        190  MISS:          0  HIT %:        100  MISS %:          0   MPKI: 0
PSCL2 LOAD TRANSLATION ACCESS:        190  HIT:        190  MISS:          0  HIT %:        100  MISS %:          0   MPKI: 0

L1D TOTAL     ACCESS:           6479670  HIT:    6334200  MISS:     145470  HIT %:     97.755  MISS %:    2.24502   MPKI: 9.09187  USED:      50365  UNUSED:      95105
L1D LOAD      ACCESS:           2786540  HIT:    2641097  MISS:     145443  HIT %:    94.7805  MISS %:    5.21948   MPKI: 9.09019  USED:      50338  UNUSED:      95105
L1D RFO       ACCESS:           3693130  HIT:    3693103  MISS:         27  HIT %:    99.9993  MISS %: 0.000731087   MPKI: 0.0016875
L1D PTL1 TRANSLATION ACCESS:          0  HIT:          0  MISS:          0  HIT %:       -nan  MISS %:       -nan   MPKI: 0
L1D PTL2 TRANSLATION ACCESS:          0  HIT:          0  MISS:          0  HIT %:       -nan  MISS %:       -nan   MPKI: 0
L1D PTL3 TRANSLATION ACCESS:          0  HIT:          0  MISS:          0  HIT %:       -nan  MISS %:       -nan   MPKI: 0
L1D PTL4 TRANSLATION ACCESS:          0  HIT:          0  MISS:          0  HIT %:       -nan  MISS %:       -nan   MPKI: 0
L1D PTL5 TRANSLATION ACCESS:          0  HIT:          0  MISS:          0  HIT %:       -nan  MISS %:       -nan   MPKI: 0
L1D TOTAL EVICTIONS:             145470  TRANSLATION EVICTIONS:          0  TRANSLATION EVICTING TRANSALTION:          0  TRANSLATION EVICTING LOAD:          0  LOAD EVICTING TRANSALTION:          0  LOAD EVICTING LOAD:      145416
L1D AVERAGE MISS LATENCY:       25.2627 cycles  AVERAGE LOAD MISS LATENCY:       25.2646 cycles  AVERAGE LOAD TRANSLATION MISS LATENCY:          -nan cycles
L1D RQ ACCESS:     4073067	FORWARD:           0	MERGED:       854795	TO_CACHE:    2786540
L1D WQ ACCESS:     3693204	FORWARD:      431732	MERGED:            9	TO_CACHE:    3693195

L1I TOTAL     ACCESS:           2388057  HIT:    2388057  MISS:          0  HIT %:        100  MISS %:          0   MPKI: 0
L1I LOAD      ACCESS:           2388057  HIT:    2388057  MISS:          0  HIT %:        100  MISS %:          0   MPKI: 0
L1I AVERAGE MISS LATENCY:          -nan cycles
L1I RQ ACCESS:     3768387	FORWARD:           0	MERGED:      1380331	TO_CACHE:    2388056

L2C TOTAL     ACCESS:            147651  HIT:     127724  MISS:      19927  HIT %:     86.504  MISS %:     13.496   MPKI: 1.24544  USED:       1131  UNUSED:      18796
L2C LOAD      ACCESS:            145443  HIT:     125522  MISS:      19921  HIT %:    86.3032  MISS %:    13.6968   MPKI: 1.24506  USED:        926  UNUSED:      18796
L2C RFO       ACCESS:                27  HIT:         27  MISS:          0  HIT %:        100  MISS %:          0   MPKI: 0
L2C WRITEBACK ACCESS:              2181  HIT:       2175  MISS:          6  HIT %:    99.7249  MISS %:   0.275103   MPKI: 0.000375
L2C PTL1 TRANSLATION ACCESS:          0  HIT:          0  MISS:          0  HIT %:       -nan  MISS %:       -nan   MPKI: 0
L2C PTL2 TRANSLATION ACCESS:          0  HIT:          0  MISS:          0  HIT %:       -nan  MISS %:       -nan   MPKI: 0
L2C PTL3 TRANSLATION ACCESS:          0  HIT:          0  MISS:          0  HIT %:       -nan  MISS %:       -nan   MPKI: 0
L2C PTL4 TRANSLATION ACCESS:          0  HIT:          0  MISS:          0  HIT %:       -nan  MISS %:       -nan   MPKI: 0
L2C PTL5 TRANSLATION ACCESS:          0  HIT:          0  MISS:          0  HIT %:       -nan  MISS %:       -nan   MPKI: 0
L2C TOTAL EVICTIONS:              19927  TRANSLATION EVICTIONS:          0  TRANSLATION EVICTING TRANSALTION:          0  TRANSLATION EVICTING LOAD:          0  LOAD EVICTING TRANSALTION:          0  LOAD EVICTING LOAD:       19716
L2C AVERAGE MISS LATENCY:        74.919 cycles  AVERAGE LOAD MISS LATENCY:       74.9415 cycles  AVERAGE LOAD TRANSLATION MISS LATENCY:          -nan cycles
L2C RQ ACCESS:      145470	FORWARD:           0	MERGED:            0	TO_CACHE:     145470
L2C WQ ACCESS:        2181	FORWARD:           0	MERGED:            0	TO_CACHE:       2181

LLC TOTAL     ACCESS:             22268  HIT:      10006  MISS:      12262  HIT %:    44.9344  MISS %:    55.0656   MPKI: 0.766375  USED:          0  UNUSED:          0
LLC LOAD      ACCESS:             19921  HIT:       7697  MISS:      12224  HIT %:    38.6376  MISS %:    61.3624   MPKI: 0.764  USED:          0  UNUSED:          0
LLC WRITEBACK ACCESS:              2347  HIT:       2309  MISS:         38  HIT %:    98.3809  MISS %:    1.61909   MPKI: 0.002375
LLC PTL1 TRANSLATION ACCESS:          0  HIT:          0  MISS:          0  HIT %:       -nan  MISS %:       -nan   MPKI: 0
LLC PTL2 TRANSLATION ACCESS:          0  HIT:          0  MISS:          0  HIT %:       -nan  MISS %:       -nan   MPKI: 0
LLC PTL3 TRANSLATION ACCESS:          0  HIT:          0  MISS:          0  HIT %:       -nan  MISS %:       -nan   MPKI: 0
LLC PTL4 TRANSLATION ACCESS:          0  HIT:          0  MISS:          0  HIT %:       -nan  MISS %:       -nan   MPKI: 0
LLC PTL5 TRANSLATION ACCESS:          0  HIT:          0  MISS:          0  HIT %:       -nan  MISS %:       -nan   MPKI: 0
LLC TOTAL EVICTIONS:                  0  TRANSLATION EVICTIONS:          0  TRANSLATION EVICTING TRANSALTION:          0  TRANSLATION EVICTING LOAD:          0  LOAD EVICTING TRANSALTION:          0  LOAD EVICTING LOAD:           0
LLC AVERAGE MISS LATENCY:       73.0126 cycles  AVERAGE LOAD MISS LATENCY:       73.2395 cycles  AVERAGE LOAD TRANSLATION MISS LATENCY:          -nan cycles
LLC RQ ACCESS:       19921	FORWARD:           0	MERGED:            0	TO_CACHE:      19921
LLC WQ ACCESS:        2347	FORWARD:           0	MERGED:            0	TO_CACHE:       2347


RAW hits: 2705324
Loads Generated: 6778391
Loads sent to L1D: 4073067
Stores Generated: 3693202
Stores sent to L1D: 3693204
Major fault: 0 Minor fault: 830
Allocated PAGES: 830
IRREG DATA L1D ACCESS: 361361
L2C ACCESSES: 236555
L2C MISSES: 3302
Total LLC accesses: 46922
Total Irreg accesses: 5048

DRAM Statistics
 CHANNEL 0
 RQ ROW_BUFFER_HIT:      11828  ROW_BUFFER_MISS:        586
 DBUS_CONGESTED:          0
 WQ ROW_BUFFER_HIT:          0  ROW_BUFFER_MISS:         35  FULL:          0

 AVG_CONGESTED_CYCLE: -

CPU 0 Branch Prediction Accuracy: 98.3335% MPKI: 2.04269 Average ROB Occupancy at Mispredict: 13.1367
Branch types
NOT_BRANCH: 14038398 87.74%
BRANCH_DIRECT_JUMP: 0 0%
BRANCH_INDIRECT: 229337 1.43336%
BRANCH_CONDITIONAL: 0 0%
BRANCH_DIRECT_CALL: 34424 0.21515%
BRANCH_INDIRECT_CALL: 665216 4.1576%
BRANCH_RETURN: 699642 4.37276%
BRANCH_OTHER: 332608 2.0788%

DRAM PAGES: 1048576
Allocated PAGES: 830
