
*** ChampSim Multicore Out-of-Order Simulator ***

Warmup Instructions: 16000000
Simulation Instructions: 16000000
Number of CPUs: 1
LLC sets: 2048
LLC ways: 16
Off-chip DRAM Size: 4096 MB Channels: 1 Width: 64-bit Data Rate: 6400 MT/s
CPU 0 runs tracer/pull_u16_k3.xz
.xz
BTB has LRU replacement policy
ITLB has LRU replacement policy
DTLB has LRU replacement policy
STLB has LRU replacement policy
L1I has LRU replacement policy
L1D has LRU replacement policy
L2C has LRU replacement policy
Initialize DRRIP state for LLC
Heartbeat CPU 0 instructions: 1000000 cycles: 348622 heartbeat IPC: 2.86844 cumulative IPC: 2.86844 (Simulation time: 0 hr 0 min 3 sec) 
PIN_registerGraphs(random_u16_k3.sg,1)
Graphh Number of Nodes: 65536
Heartbeat CPU 0 instructions: 2000000 cycles: 688190 heartbeat IPC: 2.94492 cumulative IPC: 2.90617 (Simulation time: 0 hr 0 min 6 sec) 
PIN_updateRegBaseBound( 94080245625040, 94080245887184)
updateCurrDst(197)
updateCurrDst(580)
updateCurrDst(702)
updateCurrDst(841)
updateCurrDst(959)
updateCurrDst(964)
Heartbeat CPU 0 instructions: 3000001 cycles: 1013246 heartbeat IPC: 3.0764 cumulative IPC: 2.96078 (Simulation time: 0 hr 0 min 9 sec) 
updateCurrDst(1154)
updateCurrDst(1155)
updateCurrDst(1215)
updateCurrDst(1300)
updateCurrDst(1407)
updateCurrDst(1430)
updateCurrDst(1561)
updateCurrDst(1565)
updateCurrDst(1588)
updateCurrDst(1679)
updateCurrDst(1713)
updateCurrDst(1817)
updateCurrDst(1906)
updateCurrDst(1936)
updateCurrDst(2029)
updateCurrDst(2109)
updateCurrDst(2126)
updateCurrDst(2135)
updateCurrDst(2163)
updateCurrDst(2204)
updateCurrDst(2289)
updateCurrDst(2325)
updateCurrDst(2437)
updateCurrDst(2511)
updateCurrDst(2568)
updateCurrDst(2905)
updateCurrDst(2936)
updateCurrDst(2990)
updateCurrDst(3210)
updateCurrDst(3219)
Heartbeat CPU 0 instructions: 4000001 cycles: 1331026 heartbeat IPC: 3.14683 cumulative IPC: 3.0052 (Simulation time: 0 hr 0 min 13 sec) 
updateCurrDst(3397)
updateCurrDst(3418)
updateCurrDst(3488)
updateCurrDst(3491)
updateCurrDst(3528)
updateCurrDst(3730)
updateCurrDst(3843)
updateCurrDst(3847)
updateCurrDst(3865)
updateCurrDst(3955)
updateCurrDst(4163)
updateCurrDst(4213)
updateCurrDst(4220)
updateCurrDst(4282)
updateCurrDst(4495)
updateCurrDst(4622)
updateCurrDst(4754)
updateCurrDst(4911)
updateCurrDst(5090)
updateCurrDst(5166)
updateCurrDst(5173)
Heartbeat CPU 0 instructions: 5000003 cycles: 1648340 heartbeat IPC: 3.15146 cumulative IPC: 3.03336 (Simulation time: 0 hr 0 min 17 sec) 
updateCurrDst(5291)
updateCurrDst(5319)
updateCurrDst(5622)
updateCurrDst(5626)
updateCurrDst(5798)
updateCurrDst(5836)
updateCurrDst(5949)
updateCurrDst(6070)
updateCurrDst(6316)
updateCurrDst(6349)
updateCurrDst(6388)
updateCurrDst(6566)
updateCurrDst(6873)
updateCurrDst(7015)
updateCurrDst(7051)
updateCurrDst(7136)
updateCurrDst(7148)
updateCurrDst(7240)
Heartbeat CPU 0 instructions: 6000002 cycles: 1965745 heartbeat IPC: 3.15055 cumulative IPC: 3.05228 (Simulation time: 0 hr 0 min 20 sec) 
updateCurrDst(7447)
updateCurrDst(7618)
updateCurrDst(7782)
updateCurrDst(7840)
updateCurrDst(7882)
updateCurrDst(8067)
updateCurrDst(8075)
updateCurrDst(8384)
updateCurrDst(8418)
updateCurrDst(8450)
updateCurrDst(8461)
updateCurrDst(8573)
updateCurrDst(8756)
updateCurrDst(8858)
updateCurrDst(8960)
updateCurrDst(9357)
updateCurrDst(9396)
Heartbeat CPU 0 instructions: 7000003 cycles: 2282774 heartbeat IPC: 3.15429 cumulative IPC: 3.06645 (Simulation time: 0 hr 0 min 24 sec) 
updateCurrDst(9568)
updateCurrDst(9596)
updateCurrDst(9615)
updateCurrDst(9645)
updateCurrDst(9724)
updateCurrDst(9924)
updateCurrDst(10092)
updateCurrDst(10169)
updateCurrDst(10173)
updateCurrDst(10431)
updateCurrDst(10624)
updateCurrDst(10748)
updateCurrDst(10895)
updateCurrDst(11011)
updateCurrDst(11038)
updateCurrDst(11187)
updateCurrDst(11401)
Heartbeat CPU 0 instructions: 8000002 cycles: 2600209 heartbeat IPC: 3.15025 cumulative IPC: 3.07668 (Simulation time: 0 hr 0 min 28 sec) 
updateCurrDst(11514)
updateCurrDst(11715)
updateCurrDst(11733)
updateCurrDst(11839)
updateCurrDst(11918)
updateCurrDst(12145)
updateCurrDst(12153)
updateCurrDst(12156)
updateCurrDst(12294)
updateCurrDst(12386)
updateCurrDst(12393)
updateCurrDst(12489)
updateCurrDst(12496)
updateCurrDst(12560)
updateCurrDst(12659)
updateCurrDst(12686)
updateCurrDst(12738)
updateCurrDst(12790)
updateCurrDst(12933)
updateCurrDst(13061)
updateCurrDst(13088)
updateCurrDst(13123)
updateCurrDst(13328)
updateCurrDst(13386)
updateCurrDst(13554)
Heartbeat CPU 0 instructions: 9000002 cycles: 2917876 heartbeat IPC: 3.14795 cumulative IPC: 3.08444 (Simulation time: 0 hr 0 min 31 sec) 
updateCurrDst(13613)
updateCurrDst(13708)
updateCurrDst(13827)
updateCurrDst(13890)
updateCurrDst(13913)
updateCurrDst(13919)
updateCurrDst(14242)
updateCurrDst(14368)
updateCurrDst(14500)
updateCurrDst(14597)
updateCurrDst(14687)
updateCurrDst(15029)
updateCurrDst(15050)
updateCurrDst(15132)
updateCurrDst(15133)
updateCurrDst(15137)
updateCurrDst(15180)
updateCurrDst(15195)
updateCurrDst(15268)
updateCurrDst(15391)
updateCurrDst(15461)
updateCurrDst(15478)
updateCurrDst(15505)
updateCurrDst(15605)
Heartbeat CPU 0 instructions: 10000001 cycles: 3235202 heartbeat IPC: 3.15133 cumulative IPC: 3.091 (Simulation time: 0 hr 0 min 35 sec) 
updateCurrDst(15759)
updateCurrDst(16067)
updateCurrDst(16153)
updateCurrDst(16222)
updateCurrDst(16262)
updateCurrDst(16272)
updateCurrDst(16469)
updateCurrDst(16504)
updateCurrDst(16561)
updateCurrDst(16672)
updateCurrDst(16733)
updateCurrDst(16778)
updateCurrDst(16814)
updateCurrDst(16843)
updateCurrDst(16850)
updateCurrDst(16966)
updateCurrDst(17096)
updateCurrDst(17102)
updateCurrDst(17109)
updateCurrDst(17113)
updateCurrDst(17158)
updateCurrDst(17375)
updateCurrDst(17393)
updateCurrDst(17468)
updateCurrDst(17726)
Heartbeat CPU 0 instructions: 11000000 cycles: 3552597 heartbeat IPC: 3.15065 cumulative IPC: 3.09633 (Simulation time: 0 hr 0 min 39 sec) 
updateCurrDst(17836)
updateCurrDst(17859)
updateCurrDst(17908)
updateCurrDst(18022)
updateCurrDst(18239)
updateCurrDst(18251)
updateCurrDst(18522)
updateCurrDst(18642)
updateCurrDst(18660)
updateCurrDst(18734)
updateCurrDst(18803)
updateCurrDst(18847)
updateCurrDst(19164)
updateCurrDst(19224)
updateCurrDst(19432)
updateCurrDst(19534)
updateCurrDst(19603)
updateCurrDst(19610)
updateCurrDst(19623)
updateCurrDst(19661)
Heartbeat CPU 0 instructions: 12000002 cycles: 3869937 heartbeat IPC: 3.1512 cumulative IPC: 3.10083 (Simulation time: 0 hr 0 min 43 sec) 
updateCurrDst(19863)
updateCurrDst(20155)
updateCurrDst(20179)
updateCurrDst(20212)
updateCurrDst(20334)
updateCurrDst(20396)
updateCurrDst(20635)
updateCurrDst(20713)
updateCurrDst(20861)
updateCurrDst(20897)
updateCurrDst(20988)
updateCurrDst(21112)
updateCurrDst(21189)
updateCurrDst(21248)
updateCurrDst(21330)
updateCurrDst(21350)
updateCurrDst(21415)
updateCurrDst(21451)
updateCurrDst(21661)
updateCurrDst(21678)
updateCurrDst(21725)
updateCurrDst(21786)
updateCurrDst(21833)
Heartbeat CPU 0 instructions: 13000002 cycles: 4187674 heartbeat IPC: 3.14726 cumulative IPC: 3.10435 (Simulation time: 0 hr 0 min 46 sec) 
updateCurrDst(22270)
updateCurrDst(22429)
updateCurrDst(22464)
updateCurrDst(22567)
updateCurrDst(22619)
updateCurrDst(22672)
updateCurrDst(22836)
updateCurrDst(23328)
updateCurrDst(23469)
updateCurrDst(23489)
updateCurrDst(23542)
updateCurrDst(23717)
updateCurrDst(23722)
updateCurrDst(23778)
updateCurrDst(23821)
updateCurrDst(23875)
Heartbeat CPU 0 instructions: 14000003 cycles: 4505249 heartbeat IPC: 3.14887 cumulative IPC: 3.10749 (Simulation time: 0 hr 0 min 50 sec) 
updateCurrDst(24074)
updateCurrDst(24121)
updateCurrDst(24255)
updateCurrDst(24445)
updateCurrDst(24604)
updateCurrDst(24660)
updateCurrDst(24714)
updateCurrDst(24743)
updateCurrDst(24775)
updateCurrDst(24780)
updateCurrDst(24789)
updateCurrDst(24908)
updateCurrDst(24985)
updateCurrDst(25156)
updateCurrDst(25208)
updateCurrDst(25296)
updateCurrDst(25351)
updateCurrDst(25355)
updateCurrDst(25510)
updateCurrDst(25526)
updateCurrDst(25539)
updateCurrDst(25688)
updateCurrDst(25898)
Heartbeat CPU 0 instructions: 15000000 cycles: 4823030 heartbeat IPC: 3.14681 cumulative IPC: 3.11008 (Simulation time: 0 hr 0 min 54 sec) 
updateCurrDst(26127)
updateCurrDst(26139)
updateCurrDst(26161)
updateCurrDst(26379)
updateCurrDst(26502)
updateCurrDst(26590)
updateCurrDst(26652)
updateCurrDst(27098)
updateCurrDst(27278)
updateCurrDst(27489)
updateCurrDst(27557)
updateCurrDst(27645)
updateCurrDst(27669)
updateCurrDst(27816)
updateCurrDst(27829)
updateCurrDst(27935)
updateCurrDst(28072)
Heartbeat CPU 0 instructions: 16000001 cycles: 5140515 heartbeat IPC: 3.14976 cumulative IPC: 3.11253 (Simulation time: 0 hr 0 min 57 sec) 

Warmup complete CPU 0 instructions: 16000001 cycles: 5140515 (Simulation time: 0 hr 0 min 57 sec) 

updateCurrDst(28369)
updateCurrDst(28371)
updateCurrDst(28392)
updateCurrDst(28423)
updateCurrDst(28495)
updateCurrDst(28698)
updateCurrDst(29040)
updateCurrDst(29518)
updateCurrDst(29698)
updateCurrDst(29750)
updateCurrDst(29798)
updateCurrDst(29885)
updateCurrDst(29969)
updateCurrDst(30049)
updateCurrDst(30127)
Heartbeat CPU 0 instructions: 17000000 cycles: 8091039 heartbeat IPC: 0.338923 cumulative IPC: 0.338923 (Simulation time: 0 hr 1 min 1 sec) 
updateCurrDst(30273)
updateCurrDst(30362)
updateCurrDst(30501)
updateCurrDst(30540)
updateCurrDst(30874)
updateCurrDst(30907)
updateCurrDst(30912)
updateCurrDst(31062)
updateCurrDst(31241)
updateCurrDst(31431)
updateCurrDst(31464)
updateCurrDst(31518)
updateCurrDst(31584)
updateCurrDst(31658)
updateCurrDst(31790)
updateCurrDst(31833)
updateCurrDst(31965)
updateCurrDst(32030)
updateCurrDst(32084)
updateCurrDst(32085)
updateCurrDst(32196)
updateCurrDst(32288)
updateCurrDst(32302)
updateCurrDst(32310)
Heartbeat CPU 0 instructions: 18000000 cycles: 11082761 heartbeat IPC: 0.334256 cumulative IPC: 0.336573 (Simulation time: 0 hr 1 min 5 sec) 
updateCurrDst(32440)
updateCurrDst(32513)
updateCurrDst(32755)
updateCurrDst(32859)
updateCurrDst(32929)
updateCurrDst(32978)
updateCurrDst(33002)
updateCurrDst(33349)
updateCurrDst(33540)
updateCurrDst(33880)
updateCurrDst(34123)
updateCurrDst(34126)
updateCurrDst(34177)
updateCurrDst(34221)
updateCurrDst(34407)
Heartbeat CPU 0 instructions: 19000000 cycles: 14073368 heartbeat IPC: 0.33438 cumulative IPC: 0.335839 (Simulation time: 0 hr 1 min 9 sec) 
updateCurrDst(34474)
updateCurrDst(34700)
updateCurrDst(34917)
updateCurrDst(34985)
updateCurrDst(35033)
updateCurrDst(35172)
updateCurrDst(35362)
updateCurrDst(35510)
updateCurrDst(35653)
updateCurrDst(35677)
updateCurrDst(35698)
updateCurrDst(35749)
updateCurrDst(35929)
updateCurrDst(36030)
updateCurrDst(36236)
Heartbeat CPU 0 instructions: 20000003 cycles: 17087700 heartbeat IPC: 0.331749 cumulative IPC: 0.334807 (Simulation time: 0 hr 1 min 13 sec) 
updateCurrDst(36699)
updateCurrDst(36774)
updateCurrDst(36830)
updateCurrDst(37056)
updateCurrDst(37306)
updateCurrDst(37318)
updateCurrDst(37350)
updateCurrDst(37387)
updateCurrDst(37437)
updateCurrDst(37647)
updateCurrDst(37724)
updateCurrDst(37856)
updateCurrDst(37871)
updateCurrDst(37905)
updateCurrDst(37968)
updateCurrDst(38017)
updateCurrDst(38158)
updateCurrDst(38301)
updateCurrDst(38406)
updateCurrDst(38540)
Heartbeat CPU 0 instructions: 21000003 cycles: 20107224 heartbeat IPC: 0.331178 cumulative IPC: 0.334075 (Simulation time: 0 hr 1 min 17 sec) 
updateCurrDst(38611)
updateCurrDst(38685)
updateCurrDst(38742)
updateCurrDst(38755)
updateCurrDst(38948)
updateCurrDst(39093)
updateCurrDst(39203)
updateCurrDst(39205)
updateCurrDst(39228)
updateCurrDst(39276)
updateCurrDst(39396)
updateCurrDst(39414)
updateCurrDst(39515)
updateCurrDst(39582)
updateCurrDst(39588)
updateCurrDst(39706)
updateCurrDst(40005)
updateCurrDst(40062)
updateCurrDst(40175)
updateCurrDst(40300)
updateCurrDst(40360)
updateCurrDst(40382)
updateCurrDst(40627)
Heartbeat CPU 0 instructions: 22000000 cycles: 23128867 heartbeat IPC: 0.330945 cumulative IPC: 0.333549 (Simulation time: 0 hr 1 min 21 sec) 
updateCurrDst(40694)
updateCurrDst(40695)
updateCurrDst(40721)
updateCurrDst(40756)
updateCurrDst(40815)
updateCurrDst(40840)
updateCurrDst(40860)
updateCurrDst(41014)
updateCurrDst(41113)
updateCurrDst(41575)
updateCurrDst(41741)
updateCurrDst(41767)
updateCurrDst(41839)
updateCurrDst(41920)
updateCurrDst(42058)
updateCurrDst(42086)
updateCurrDst(42312)
updateCurrDst(42325)
updateCurrDst(42372)
updateCurrDst(42459)
updateCurrDst(42462)
updateCurrDst(42552)
updateCurrDst(42588)
updateCurrDst(42624)
Heartbeat CPU 0 instructions: 23000002 cycles: 26153199 heartbeat IPC: 0.330652 cumulative IPC: 0.333132 (Simulation time: 0 hr 1 min 25 sec) 
updateCurrDst(42831)
updateCurrDst(42899)
updateCurrDst(43020)
updateCurrDst(43317)
updateCurrDst(43406)
updateCurrDst(43534)
updateCurrDst(43592)
updateCurrDst(43685)
updateCurrDst(43748)
updateCurrDst(43810)
updateCurrDst(44009)
updateCurrDst(44056)
updateCurrDst(44268)
updateCurrDst(44448)
updateCurrDst(44602)
updateCurrDst(44776)
Heartbeat CPU 0 instructions: 24000001 cycles: 29161192 heartbeat IPC: 0.332447 cumulative IPC: 0.333046 (Simulation time: 0 hr 1 min 30 sec) 
updateCurrDst(44936)
updateCurrDst(44959)
updateCurrDst(44985)
updateCurrDst(44993)
updateCurrDst(45095)
updateCurrDst(45120)
updateCurrDst(45175)
updateCurrDst(45312)
updateCurrDst(45327)
updateCurrDst(45449)
updateCurrDst(45660)
updateCurrDst(45791)
updateCurrDst(45800)
updateCurrDst(45911)
updateCurrDst(46053)
updateCurrDst(46111)
updateCurrDst(46118)
updateCurrDst(46179)
updateCurrDst(46210)
updateCurrDst(46229)
updateCurrDst(46509)
updateCurrDst(46763)
Heartbeat CPU 0 instructions: 25000000 cycles: 32162772 heartbeat IPC: 0.333158 cumulative IPC: 0.333059 (Simulation time: 0 hr 1 min 34 sec) 
updateCurrDst(46900)
updateCurrDst(46918)
updateCurrDst(46951)
updateCurrDst(47097)
updateCurrDst(47115)
updateCurrDst(47275)
updateCurrDst(47282)
updateCurrDst(47343)
updateCurrDst(47393)
updateCurrDst(47488)
updateCurrDst(47642)
updateCurrDst(47852)
updateCurrDst(47965)
updateCurrDst(47981)
updateCurrDst(48094)
updateCurrDst(48153)
updateCurrDst(48207)
updateCurrDst(48267)
updateCurrDst(48568)
updateCurrDst(48578)
updateCurrDst(48670)
updateCurrDst(48733)
updateCurrDst(48789)
updateCurrDst(48803)
updateCurrDst(48940)
updateCurrDst(48953)
updateCurrDst(48966)
Heartbeat CPU 0 instructions: 26000003 cycles: 35168522 heartbeat IPC: 0.332697 cumulative IPC: 0.333023 (Simulation time: 0 hr 1 min 38 sec) 
updateCurrDst(48997)
updateCurrDst(49036)
updateCurrDst(49168)
updateCurrDst(49321)
updateCurrDst(49424)
updateCurrDst(49478)
updateCurrDst(49521)
updateCurrDst(49959)
updateCurrDst(50097)
updateCurrDst(50118)
updateCurrDst(50209)
updateCurrDst(50210)
updateCurrDst(50307)
updateCurrDst(50497)
updateCurrDst(50531)
updateCurrDst(50840)
updateCurrDst(50843)
updateCurrDst(50916)
updateCurrDst(50984)
updateCurrDst(50996)
updateCurrDst(51004)
updateCurrDst(51015)
updateCurrDst(51026)
Heartbeat CPU 0 instructions: 27000000 cycles: 38182156 heartbeat IPC: 0.331824 cumulative IPC: 0.332913 (Simulation time: 0 hr 1 min 42 sec) 
updateCurrDst(51389)
updateCurrDst(51395)
updateCurrDst(51641)
updateCurrDst(51652)
updateCurrDst(52125)
updateCurrDst(52202)
updateCurrDst(52245)
updateCurrDst(52334)
updateCurrDst(52480)
updateCurrDst(52554)
updateCurrDst(52608)
updateCurrDst(52662)
updateCurrDst(52785)
updateCurrDst(52929)
updateCurrDst(52939)
updateCurrDst(53014)
updateCurrDst(53121)
updateCurrDst(53136)
Heartbeat CPU 0 instructions: 28000000 cycles: 41208388 heartbeat IPC: 0.330444 cumulative IPC: 0.332706 (Simulation time: 0 hr 1 min 46 sec) 
updateCurrDst(53188)
updateCurrDst(53244)
updateCurrDst(53250)
updateCurrDst(53299)
updateCurrDst(53462)
updateCurrDst(53755)
updateCurrDst(53757)
updateCurrDst(53810)
updateCurrDst(53864)
updateCurrDst(54043)
updateCurrDst(54057)
updateCurrDst(54131)
updateCurrDst(54197)
updateCurrDst(54520)
updateCurrDst(54804)
updateCurrDst(54831)
updateCurrDst(55168)
Heartbeat CPU 0 instructions: 29000003 cycles: 44225086 heartbeat IPC: 0.331489 cumulative IPC: 0.332612 (Simulation time: 0 hr 1 min 50 sec) 
updateCurrDst(55294)
updateCurrDst(55378)
updateCurrDst(55447)
updateCurrDst(55491)
updateCurrDst(55597)
updateCurrDst(55633)
updateCurrDst(55684)
updateCurrDst(55774)
updateCurrDst(55799)
updateCurrDst(55811)
updateCurrDst(55887)
updateCurrDst(56045)
updateCurrDst(56047)
updateCurrDst(56056)
updateCurrDst(56062)
updateCurrDst(56188)
updateCurrDst(56380)
updateCurrDst(56526)
updateCurrDst(56550)
updateCurrDst(56553)
updateCurrDst(56621)
updateCurrDst(56808)
updateCurrDst(56865)
updateCurrDst(56879)
updateCurrDst(56916)
updateCurrDst(56968)
updateCurrDst(56976)
updateCurrDst(57123)
updateCurrDst(57154)
Heartbeat CPU 0 instructions: 30000001 cycles: 47239053 heartbeat IPC: 0.331788 cumulative IPC: 0.332553 (Simulation time: 0 hr 1 min 54 sec) 
updateCurrDst(57327)
updateCurrDst(57435)
updateCurrDst(57449)
updateCurrDst(57496)
updateCurrDst(57531)
updateCurrDst(57630)
updateCurrDst(57660)
updateCurrDst(57925)
updateCurrDst(57938)
updateCurrDst(58097)
updateCurrDst(58240)
updateCurrDst(58464)
updateCurrDst(58466)
updateCurrDst(58722)
updateCurrDst(58780)
updateCurrDst(59070)
updateCurrDst(59113)
updateCurrDst(59190)
updateCurrDst(59205)
updateCurrDst(59219)
Heartbeat CPU 0 instructions: 31000001 cycles: 50253386 heartbeat IPC: 0.331748 cumulative IPC: 0.332499 (Simulation time: 0 hr 1 min 58 sec) 
updateCurrDst(59384)
updateCurrDst(59492)
updateCurrDst(59579)
updateCurrDst(59870)
updateCurrDst(59886)
updateCurrDst(59973)
updateCurrDst(60033)
updateCurrDst(60156)
updateCurrDst(60392)
updateCurrDst(60514)
updateCurrDst(60577)
updateCurrDst(60590)
updateCurrDst(60621)
updateCurrDst(60643)
updateCurrDst(60657)
updateCurrDst(60732)
updateCurrDst(60751)
updateCurrDst(60811)
updateCurrDst(60869)
updateCurrDst(60991)
updateCurrDst(60994)
updateCurrDst(61060)
updateCurrDst(61121)
updateCurrDst(61360)
updateCurrDst(61392)
*** Reached end of trace for Core: 0 Repeating trace: tracer/pull_u16_k3.xzafter: 32000000
Heartbeat CPU 0 instructions: 32000002 cycles: 53268391 heartbeat IPC: 0.331675 cumulative IPC: 0.332448 (Simulation time: 0 hr 2 min 2 sec) 
Finished CPU 0 instructions: 16000001 cycles: 48127876 cumulative IPC: 0.332448 (Simulation time: 0 hr 2 min 2 sec) 

ChampSim completed all CPUs

Region of Interest Statistics

CPU 0 cumulative IPC: 0.332448 instructions: 16000001 cycles: 48127876

Total ROB STALLS:                    6364449
STLB MISS ROB STALLS:                    194
L1D  LOAD MISS ROB STALLS:            184720  Translation MISS ROB STALLS:             0
L2C  LOAD MISS ROB STALLS:             18744  Translation MISS ROB STALLS:             0
LLC  LOAD MISS ROB STALLS:             16378  Translation MISS ROB STALLS:             0

ITLB TOTAL     ACCESS:           2163753  HIT:    2163753  MISS:          0  HIT %:        100  MISS %:          0   MPKI: 0
ITLB LOAD TRANSLATION ACCESS:    2163753  HIT:    2163753  MISS:          0  HIT %:        100  MISS %:          0   MPKI: 0
ITLB AVERAGE MISS LATENCY:          -nan cycles
ITLB RQ ACCESS:     2361498	FORWARD:           0	MERGED:       197746	TO_CACHE:    2163752

DTLB TOTAL     ACCESS:           4716148  HIT:    4699389  MISS:      16759  HIT %:    99.6446  MISS %:   0.355354   MPKI: 1.04744
DTLB LOAD TRANSLATION ACCESS:    4716148  HIT:    4699389  MISS:      16759  HIT %:    99.6446  MISS %:   0.355354   MPKI: 1.04744
DTLB AVERAGE MISS LATENCY:       11.9051 cycles
DTLB RQ ACCESS:     6486242	FORWARD:           0	MERGED:      1770094	TO_CACHE:    4716148

STLB TOTAL     ACCESS:             16758  HIT:      16564  MISS:        194  HIT %:    98.8423  MISS %:    1.15766   MPKI: 0.012125
STLB LOAD TRANSLATION ACCESS:      16758  HIT:      16564  MISS:        194  HIT %:    98.8423  MISS %:    1.15766   MPKI: 0.012125
STLB AVERAGE MISS LATENCY:           251 cycles
STLB RQ ACCESS:       16758	FORWARD:           0	MERGED:            0	TO_CACHE:      16758

PSCL5 TOTAL     ACCESS:               194  HIT:        194  MISS:          0  HIT %:        100  MISS %:          0   MPKI: 0
PSCL5 LOAD TRANSLATION ACCESS:        194  HIT:        194  MISS:          0  HIT %:        100  MISS %:          0   MPKI: 0

PSCL4 TOTAL     ACCESS:               194  HIT:        194  MISS:          0  HIT %:        100  MISS %:          0   MPKI: 0
PSCL4 LOAD TRANSLATION ACCESS:        194  HIT:        194  MISS:          0  HIT %:        100  MISS %:          0   MPKI: 0

PSCL3 TOTAL     ACCESS:               194  HIT:        194  MISS:          0  HIT %:        100  MISS %:          0   MPKI: 0
PSCL3 LOAD TRANSLATION ACCESS:        194  HIT:        194  MISS:          0  HIT %:        100  MISS %:          0   MPKI: 0

PSCL2 TOTAL     ACCESS:               194  HIT:        194  MISS:          0  HIT %:        100  MISS %:          0   MPKI: 0
PSCL2 LOAD TRANSLATION ACCESS:        194  HIT:        194  MISS:          0  HIT %:        100  MISS %:          0   MPKI: 0

L1D TOTAL     ACCESS:           6486242  HIT:    6301523  MISS:     184719  HIT %:    97.1521  MISS %:    2.84786   MPKI: 11.5449  USED:      46713  UNUSED:     138006
L1D LOAD      ACCESS:           2797213  HIT:    2612494  MISS:     184719  HIT %:    93.3963  MISS %:    6.60368   MPKI: 11.5449  USED:      46713  UNUSED:     138006
L1D RFO       ACCESS:           3689029  HIT:    3689029  MISS:          0  HIT %:        100  MISS %:          0   MPKI: 0
L1D PTL1 TRANSLATION ACCESS:          0  HIT:          0  MISS:          0  HIT %:       -nan  MISS %:       -nan   MPKI: 0
L1D PTL2 TRANSLATION ACCESS:          0  HIT:          0  MISS:          0  HIT %:       -nan  MISS %:       -nan   MPKI: 0
L1D PTL3 TRANSLATION ACCESS:          0  HIT:          0  MISS:          0  HIT %:       -nan  MISS %:       -nan   MPKI: 0
L1D PTL4 TRANSLATION ACCESS:          0  HIT:          0  MISS:          0  HIT %:       -nan  MISS %:       -nan   MPKI: 0
L1D PTL5 TRANSLATION ACCESS:          0  HIT:          0  MISS:          0  HIT %:       -nan  MISS %:       -nan   MPKI: 0
L1D TOTAL EVICTIONS:             184719  TRANSLATION EVICTIONS:          0  TRANSLATION EVICTING TRANSALTION:          0  TRANSLATION EVICTING LOAD:          0  LOAD EVICTING TRANSALTION:          0  LOAD EVICTING LOAD:      184719
L1D AVERAGE MISS LATENCY:       29.7053 cycles  AVERAGE LOAD MISS LATENCY:       29.7053 cycles  AVERAGE LOAD TRANSLATION MISS LATENCY:          -nan cycles
L1D RQ ACCESS:     4063432	FORWARD:           0	MERGED:       866196	TO_CACHE:    2797214
L1D WQ ACCESS:     3692303	FORWARD:      400022	MERGED:         3275	TO_CACHE:    3689028

L1I TOTAL     ACCESS:           2361499  HIT:    2361499  MISS:          0  HIT %:        100  MISS %:          0   MPKI: 0
L1I LOAD      ACCESS:           2361499  HIT:    2361499  MISS:          0  HIT %:        100  MISS %:          0   MPKI: 0
L1I AVERAGE MISS LATENCY:          -nan cycles
L1I RQ ACCESS:     3732383	FORWARD:           0	MERGED:      1370885	TO_CACHE:    2361498

L2C TOTAL     ACCESS:            186798  HIT:     168055  MISS:      18743  HIT %:    89.9662  MISS %:    10.0338   MPKI: 1.17144  USED:         33  UNUSED:      18710
L2C LOAD      ACCESS:            184719  HIT:     165976  MISS:      18743  HIT %:    89.8532  MISS %:    10.1468   MPKI: 1.17144  USED:         11  UNUSED:      18710
L2C WRITEBACK ACCESS:              2079  HIT:       2079  MISS:          0  HIT %:        100  MISS %:          0   MPKI: 0
L2C PTL1 TRANSLATION ACCESS:          0  HIT:          0  MISS:          0  HIT %:       -nan  MISS %:       -nan   MPKI: 0
L2C PTL2 TRANSLATION ACCESS:          0  HIT:          0  MISS:          0  HIT %:       -nan  MISS %:       -nan   MPKI: 0
L2C PTL3 TRANSLATION ACCESS:          0  HIT:          0  MISS:          0  HIT %:       -nan  MISS %:       -nan   MPKI: 0
L2C PTL4 TRANSLATION ACCESS:          0  HIT:          0  MISS:          0  HIT %:       -nan  MISS %:       -nan   MPKI: 0
L2C PTL5 TRANSLATION ACCESS:          0  HIT:          0  MISS:          0  HIT %:       -nan  MISS %:       -nan   MPKI: 0
L2C TOTAL EVICTIONS:              18743  TRANSLATION EVICTIONS:          0  TRANSLATION EVICTING TRANSALTION:          0  TRANSLATION EVICTING LOAD:          0  LOAD EVICTING TRANSALTION:          0  LOAD EVICTING LOAD:       18721
L2C AVERAGE MISS LATENCY:       144.926 cycles  AVERAGE LOAD MISS LATENCY:       144.926 cycles  AVERAGE LOAD TRANSLATION MISS LATENCY:          -nan cycles
L2C RQ ACCESS:      184720	FORWARD:           0	MERGED:            0	TO_CACHE:     184720
L2C WQ ACCESS:        2079	FORWARD:           0	MERGED:            0	TO_CACHE:       2079

LLC TOTAL     ACCESS:             20694  HIT:       4304  MISS:      16390  HIT %:    20.7983  MISS %:    79.2017   MPKI: 1.02437  USED:          0  UNUSED:          0
LLC LOAD      ACCESS:             18743  HIT:       2365  MISS:      16378  HIT %:     12.618  MISS %:     87.382   MPKI: 1.02362  USED:          0  UNUSED:          0
LLC WRITEBACK ACCESS:              1951  HIT:       1939  MISS:         12  HIT %:    99.3849  MISS %:   0.615069   MPKI: 0.00075
LLC PTL1 TRANSLATION ACCESS:          0  HIT:          0  MISS:          0  HIT %:       -nan  MISS %:       -nan   MPKI: 0
LLC PTL2 TRANSLATION ACCESS:          0  HIT:          0  MISS:          0  HIT %:       -nan  MISS %:       -nan   MPKI: 0
LLC PTL3 TRANSLATION ACCESS:          0  HIT:          0  MISS:          0  HIT %:       -nan  MISS %:       -nan   MPKI: 0
LLC PTL4 TRANSLATION ACCESS:          0  HIT:          0  MISS:          0  HIT %:       -nan  MISS %:       -nan   MPKI: 0
LLC PTL5 TRANSLATION ACCESS:          0  HIT:          0  MISS:          0  HIT %:       -nan  MISS %:       -nan   MPKI: 0
LLC TOTAL EVICTIONS:                  0  TRANSLATION EVICTIONS:          0  TRANSLATION EVICTING TRANSALTION:          0  TRANSLATION EVICTING LOAD:          0  LOAD EVICTING TRANSALTION:          0  LOAD EVICTING LOAD:           0
LLC AVERAGE MISS LATENCY:       131.425 cycles  AVERAGE LOAD MISS LATENCY:       131.522 cycles  AVERAGE LOAD TRANSLATION MISS LATENCY:          -nan cycles
LLC RQ ACCESS:       18744	FORWARD:           0	MERGED:            0	TO_CACHE:      18744
LLC WQ ACCESS:        1951	FORWARD:           0	MERGED:            0	TO_CACHE:       1951


RAW hits: 2722491
Loads Generated: 6785923
Loads sent to L1D: 4063432
Stores Generated: 3692301
Stores sent to L1D: 3692303
Major fault: 0 Minor fault: 830
Allocated PAGES: 830
IRREG DATA L1D ACCESS: 368630
L2C ACCESSES: 306641
L2C MISSES: 1151

DRAM Statistics
 CHANNEL 0
 RQ ROW_BUFFER_HIT:       6302  ROW_BUFFER_MISS:      10270
 DBUS_CONGESTED:          0
 WQ ROW_BUFFER_HIT:          0  ROW_BUFFER_MISS:       5152  FULL:          0

 AVG_CONGESTED_CYCLE: -

CPU 0 Branch Prediction Accuracy: 98.3104% MPKI: 2.0725 Average ROB Occupancy at Mispredict: 16.1586
Branch types
NOT_BRANCH: 14037084 87.7318%
BRANCH_DIRECT_JUMP: 0 0%
BRANCH_INDIRECT: 232872 1.45545%
BRANCH_CONDITIONAL: 0 0%
BRANCH_DIRECT_CALL: 33254 0.207837%
BRANCH_INDIRECT_CALL: 665265 4.15791%
BRANCH_RETURN: 698519 4.36574%
BRANCH_OTHER: 332633 2.07896%

DRAM PAGES: 1048576
Allocated PAGES: 830
