
*** ChampSim Multicore Out-of-Order Simulator ***

Warmup Instructions: 75000000
Simulation Instructions: 75000000
Number of CPUs: 1
LLC sets: 2048
LLC ways: 16
Off-chip DRAM Size: 4096 MB Channels: 1 Width: 64-bit Data Rate: 6400 MT/s
CPU 0 runs testcases/pull_g18_k4.xz
.xz
BTB has LRU replacement policy
ITLB has LRU replacement policy
DTLB has LRU replacement policy
STLB has LRU replacement policy
L1I has LRU replacement policy
L1D has LRU replacement policy
L2C has LRU replacement policy
Initialize DRRIP state for LLC
PIN_registerGraphs(test_g18_k4.sg,1)
Graphh Number of Nodes: 262143
Heartbeat CPU 0 instructions: 1000002 cycles: 347789 heartbeat IPC: 2.87531 cumulative IPC: 2.87531 (Simulation time: 0 hr 0 min 5 sec) 
Heartbeat CPU 0 instructions: 2000000 cycles: 681123 heartbeat IPC: 2.99999 cumulative IPC: 2.93633 (Simulation time: 0 hr 0 min 8 sec) 
Heartbeat CPU 0 instructions: 3000001 cycles: 1014393 heartbeat IPC: 3.00057 cumulative IPC: 2.95743 (Simulation time: 0 hr 0 min 12 sec) 
Heartbeat CPU 0 instructions: 4000001 cycles: 1347727 heartbeat IPC: 2.99999 cumulative IPC: 2.96796 (Simulation time: 0 hr 0 min 16 sec) 
Heartbeat CPU 0 instructions: 5000001 cycles: 1681059 heartbeat IPC: 3.00001 cumulative IPC: 2.97432 (Simulation time: 0 hr 0 min 18 sec) 
PIN_updateRegBaseBound( 94101485359248, 94101486407820)
updateCurrDst(98)
updateCurrDst(214)
updateCurrDst(427)
updateCurrDst(469)
updateCurrDst(524)
updateCurrDst(813)
updateCurrDst(831)
updateCurrDst(932)
updateCurrDst(1019)
updateCurrDst(1140)
updateCurrDst(1504)
updateCurrDst(1547)
Heartbeat CPU 0 instructions: 6000001 cycles: 2000521 heartbeat IPC: 3.13026 cumulative IPC: 2.99922 (Simulation time: 0 hr 0 min 25 sec) 
updateCurrDst(1825)
updateCurrDst(2011)
updateCurrDst(2207)
updateCurrDst(2263)
updateCurrDst(2314)
updateCurrDst(2357)
updateCurrDst(2468)
updateCurrDst(2631)
updateCurrDst(2728)
updateCurrDst(2756)
updateCurrDst(2950)
updateCurrDst(3039)
updateCurrDst(3113)
updateCurrDst(3153)
updateCurrDst(3165)
Heartbeat CPU 0 instructions: 7000002 cycles: 2316465 heartbeat IPC: 3.16512 cumulative IPC: 3.02185 (Simulation time: 0 hr 0 min 31 sec) 
updateCurrDst(3207)
updateCurrDst(3250)
updateCurrDst(3630)
updateCurrDst(3820)
updateCurrDst(4047)
updateCurrDst(4173)
updateCurrDst(4239)
updateCurrDst(4324)
updateCurrDst(4360)
updateCurrDst(4582)
updateCurrDst(4601)
updateCurrDst(4664)
updateCurrDst(4671)
updateCurrDst(4686)
Heartbeat CPU 0 instructions: 8000000 cycles: 2635284 heartbeat IPC: 3.13657 cumulative IPC: 3.03573 (Simulation time: 0 hr 0 min 38 sec) 
updateCurrDst(5100)
updateCurrDst(5141)
updateCurrDst(5144)
updateCurrDst(5146)
updateCurrDst(5157)
updateCurrDst(5224)
updateCurrDst(5265)
updateCurrDst(5342)
updateCurrDst(5370)
updateCurrDst(5410)
updateCurrDst(5448)
updateCurrDst(5479)
updateCurrDst(5490)
updateCurrDst(5520)
updateCurrDst(5543)
updateCurrDst(5616)
updateCurrDst(5637)
updateCurrDst(5831)
updateCurrDst(6009)
updateCurrDst(6103)
updateCurrDst(6119)
updateCurrDst(6417)
updateCurrDst(6467)
updateCurrDst(6520)
updateCurrDst(6587)
updateCurrDst(6656)
Heartbeat CPU 0 instructions: 9000002 cycles: 2953060 heartbeat IPC: 3.14688 cumulative IPC: 3.04769 (Simulation time: 0 hr 0 min 44 sec) 
updateCurrDst(6788)
updateCurrDst(6873)
updateCurrDst(7010)
updateCurrDst(7034)
updateCurrDst(7113)
updateCurrDst(7305)
updateCurrDst(7325)
updateCurrDst(7336)
updateCurrDst(7593)
updateCurrDst(7803)
updateCurrDst(8057)
updateCurrDst(8260)
updateCurrDst(8390)
updateCurrDst(8406)
updateCurrDst(8467)
updateCurrDst(8661)
Heartbeat CPU 0 instructions: 10000003 cycles: 3273751 heartbeat IPC: 3.11827 cumulative IPC: 3.0546 (Simulation time: 0 hr 0 min 51 sec) 
updateCurrDst(8783)
updateCurrDst(8982)
updateCurrDst(9089)
updateCurrDst(9109)
updateCurrDst(9276)
updateCurrDst(9567)
updateCurrDst(9600)
updateCurrDst(9658)
updateCurrDst(9691)
updateCurrDst(9740)
updateCurrDst(9742)
updateCurrDst(9743)
updateCurrDst(9761)
updateCurrDst(9928)
updateCurrDst(10018)
updateCurrDst(10258)
updateCurrDst(10297)
updateCurrDst(10376)
updateCurrDst(10399)
updateCurrDst(10619)
updateCurrDst(10755)
Heartbeat CPU 0 instructions: 11000000 cycles: 3596164 heartbeat IPC: 3.1016 cumulative IPC: 3.05882 (Simulation time: 0 hr 0 min 57 sec) 
updateCurrDst(10790)
updateCurrDst(10799)
updateCurrDst(10912)
updateCurrDst(11032)
updateCurrDst(11058)
updateCurrDst(11059)
updateCurrDst(11063)
updateCurrDst(11073)
updateCurrDst(11195)
updateCurrDst(11202)
updateCurrDst(11213)
updateCurrDst(11428)
updateCurrDst(11462)
updateCurrDst(11716)
updateCurrDst(11728)
updateCurrDst(11759)
updateCurrDst(11760)
updateCurrDst(11883)
updateCurrDst(12045)
updateCurrDst(12070)
updateCurrDst(12153)
updateCurrDst(12238)
updateCurrDst(12265)
updateCurrDst(12329)
updateCurrDst(12389)
Heartbeat CPU 0 instructions: 12000002 cycles: 3912622 heartbeat IPC: 3.15998 cumulative IPC: 3.067 (Simulation time: 0 hr 1 min 6 sec) 
updateCurrDst(12436)
updateCurrDst(12540)
updateCurrDst(12666)
updateCurrDst(12714)
updateCurrDst(12719)
updateCurrDst(13074)
updateCurrDst(13135)
updateCurrDst(13169)
updateCurrDst(13439)
updateCurrDst(13450)
updateCurrDst(13655)
updateCurrDst(13676)
updateCurrDst(13743)
updateCurrDst(13816)
updateCurrDst(13826)
updateCurrDst(13829)
updateCurrDst(14000)
updateCurrDst(14030)
Heartbeat CPU 0 instructions: 13000001 cycles: 4229169 heartbeat IPC: 3.15909 cumulative IPC: 3.07389 (Simulation time: 0 hr 1 min 14 sec) 
updateCurrDst(14692)
updateCurrDst(14738)
updateCurrDst(14981)
updateCurrDst(15000)
updateCurrDst(15076)
updateCurrDst(15170)
updateCurrDst(15173)
updateCurrDst(15175)
updateCurrDst(15178)
updateCurrDst(15317)
updateCurrDst(15422)
updateCurrDst(15520)
updateCurrDst(15594)
updateCurrDst(15676)
Heartbeat CPU 0 instructions: 14000000 cycles: 4545575 heartbeat IPC: 3.16049 cumulative IPC: 3.07992 (Simulation time: 0 hr 1 min 21 sec) 
updateCurrDst(15710)
updateCurrDst(15752)
updateCurrDst(15841)
updateCurrDst(16089)
updateCurrDst(16270)
updateCurrDst(16299)
updateCurrDst(16446)
updateCurrDst(16456)
updateCurrDst(16688)
updateCurrDst(16702)
updateCurrDst(16713)
updateCurrDst(16746)
updateCurrDst(16853)
updateCurrDst(17069)
Heartbeat CPU 0 instructions: 15000001 cycles: 4859337 heartbeat IPC: 3.18713 cumulative IPC: 3.08684 (Simulation time: 0 hr 1 min 28 sec) 
updateCurrDst(17158)
updateCurrDst(17229)
updateCurrDst(17235)
updateCurrDst(17340)
updateCurrDst(17435)
updateCurrDst(17447)
updateCurrDst(17459)
updateCurrDst(17568)
updateCurrDst(17605)
updateCurrDst(17616)
updateCurrDst(17634)
updateCurrDst(17761)
updateCurrDst(17965)
updateCurrDst(17967)
updateCurrDst(18094)
updateCurrDst(18300)
updateCurrDst(18437)
updateCurrDst(18553)
updateCurrDst(18596)
Heartbeat CPU 0 instructions: 16000002 cycles: 5174052 heartbeat IPC: 3.17748 cumulative IPC: 3.09235 (Simulation time: 0 hr 1 min 36 sec) 
updateCurrDst(18810)
updateCurrDst(18825)
updateCurrDst(18894)
updateCurrDst(18918)
updateCurrDst(18984)
updateCurrDst(19024)
updateCurrDst(19044)
updateCurrDst(19175)
updateCurrDst(19295)
updateCurrDst(19307)
updateCurrDst(19353)
updateCurrDst(19413)
updateCurrDst(19457)
updateCurrDst(19462)
updateCurrDst(19463)
updateCurrDst(19556)
updateCurrDst(19587)
updateCurrDst(19651)
updateCurrDst(19779)
updateCurrDst(20050)
updateCurrDst(20103)
updateCurrDst(20126)
Heartbeat CPU 0 instructions: 17000000 cycles: 5489915 heartbeat IPC: 3.16592 cumulative IPC: 3.09659 (Simulation time: 0 hr 1 min 43 sec) 
updateCurrDst(20356)
updateCurrDst(20421)
updateCurrDst(20432)
updateCurrDst(20479)
updateCurrDst(20581)
updateCurrDst(20656)
updateCurrDst(20689)
updateCurrDst(20730)
updateCurrDst(20843)
updateCurrDst(21046)
updateCurrDst(21430)
updateCurrDst(21449)
updateCurrDst(21523)
updateCurrDst(21817)
Heartbeat CPU 0 instructions: 18000002 cycles: 5806197 heartbeat IPC: 3.16174 cumulative IPC: 3.10014 (Simulation time: 0 hr 1 min 49 sec) 
updateCurrDst(21916)
updateCurrDst(22061)
updateCurrDst(22066)
updateCurrDst(22092)
updateCurrDst(22104)
updateCurrDst(22184)
updateCurrDst(22409)
updateCurrDst(22472)
updateCurrDst(22587)
updateCurrDst(22633)
updateCurrDst(22686)
updateCurrDst(22987)
updateCurrDst(23021)
updateCurrDst(23024)
updateCurrDst(23029)
updateCurrDst(23062)
updateCurrDst(23090)
updateCurrDst(23106)
updateCurrDst(23611)
updateCurrDst(23617)
updateCurrDst(23637)
Heartbeat CPU 0 instructions: 19000003 cycles: 6124826 heartbeat IPC: 3.13845 cumulative IPC: 3.10213 (Simulation time: 0 hr 1 min 58 sec) 
updateCurrDst(23765)
updateCurrDst(24039)
updateCurrDst(24058)
updateCurrDst(24082)
updateCurrDst(24145)
updateCurrDst(24147)
updateCurrDst(24276)
updateCurrDst(24380)
updateCurrDst(24477)
updateCurrDst(24478)
updateCurrDst(24501)
updateCurrDst(24523)
updateCurrDst(24546)
updateCurrDst(24686)
updateCurrDst(24867)
updateCurrDst(24883)
updateCurrDst(24924)
updateCurrDst(24940)
updateCurrDst(25336)
updateCurrDst(25484)
updateCurrDst(25488)
Heartbeat CPU 0 instructions: 20000001 cycles: 6444069 heartbeat IPC: 3.1324 cumulative IPC: 3.10363 (Simulation time: 0 hr 2 min 6 sec) 
updateCurrDst(25602)
updateCurrDst(25781)
updateCurrDst(26210)
updateCurrDst(26331)
updateCurrDst(26391)
updateCurrDst(26393)
updateCurrDst(26422)
updateCurrDst(26507)
updateCurrDst(26516)
updateCurrDst(26536)
updateCurrDst(26589)
updateCurrDst(26657)
updateCurrDst(26686)
updateCurrDst(26776)
updateCurrDst(26789)
updateCurrDst(26818)
updateCurrDst(26864)
updateCurrDst(26894)
Heartbeat CPU 0 instructions: 21000000 cycles: 6759547 heartbeat IPC: 3.16979 cumulative IPC: 3.10672 (Simulation time: 0 hr 2 min 13 sec) 
updateCurrDst(27389)
updateCurrDst(27463)
updateCurrDst(27658)
updateCurrDst(27666)
updateCurrDst(27675)
updateCurrDst(27834)
updateCurrDst(27897)
updateCurrDst(28126)
updateCurrDst(28147)
updateCurrDst(28465)
updateCurrDst(28736)
updateCurrDst(28738)
updateCurrDst(28771)
updateCurrDst(28792)
updateCurrDst(28889)
Heartbeat CPU 0 instructions: 22000000 cycles: 7078060 heartbeat IPC: 3.13959 cumulative IPC: 3.1082 (Simulation time: 0 hr 2 min 21 sec) 
updateCurrDst(29070)
updateCurrDst(29272)
updateCurrDst(29318)
updateCurrDst(29479)
updateCurrDst(29524)
updateCurrDst(29661)
updateCurrDst(29759)
updateCurrDst(29934)
updateCurrDst(30555)
updateCurrDst(30842)
updateCurrDst(30872)
Heartbeat CPU 0 instructions: 23000001 cycles: 7400194 heartbeat IPC: 3.1043 cumulative IPC: 3.10803 (Simulation time: 0 hr 2 min 30 sec) 
updateCurrDst(31075)
updateCurrDst(31170)
updateCurrDst(31229)
updateCurrDst(31367)
updateCurrDst(31503)
updateCurrDst(31680)
updateCurrDst(31838)
updateCurrDst(31841)
updateCurrDst(31997)
updateCurrDst(32172)
updateCurrDst(32365)
updateCurrDst(32488)
updateCurrDst(32694)
updateCurrDst(32703)
updateCurrDst(32836)
updateCurrDst(32854)
updateCurrDst(32857)
Heartbeat CPU 0 instructions: 24000000 cycles: 7719724 heartbeat IPC: 3.12959 cumulative IPC: 3.10892 (Simulation time: 0 hr 2 min 38 sec) 
updateCurrDst(32910)
updateCurrDst(33013)
updateCurrDst(33044)
updateCurrDst(33120)
updateCurrDst(33485)
updateCurrDst(33588)
updateCurrDst(33607)
updateCurrDst(33814)
updateCurrDst(33975)
updateCurrDst(33980)
updateCurrDst(34003)
updateCurrDst(34014)
updateCurrDst(34153)
updateCurrDst(34182)
updateCurrDst(34314)
updateCurrDst(34376)
updateCurrDst(34401)
Heartbeat CPU 0 instructions: 25000002 cycles: 8037068 heartbeat IPC: 3.15116 cumulative IPC: 3.11059 (Simulation time: 0 hr 2 min 46 sec) 
updateCurrDst(34557)
updateCurrDst(34592)
updateCurrDst(34640)
updateCurrDst(34707)
updateCurrDst(34776)
updateCurrDst(34838)
updateCurrDst(35019)
updateCurrDst(35038)
updateCurrDst(35225)
updateCurrDst(35332)
updateCurrDst(35342)
updateCurrDst(35369)
updateCurrDst(35610)
updateCurrDst(35731)
updateCurrDst(35810)
updateCurrDst(35826)
updateCurrDst(35919)
updateCurrDst(36008)
updateCurrDst(36286)
updateCurrDst(36521)
Heartbeat CPU 0 instructions: 26000002 cycles: 8359107 heartbeat IPC: 3.10521 cumulative IPC: 3.11038 (Simulation time: 0 hr 2 min 53 sec) 
updateCurrDst(36647)
updateCurrDst(36775)
updateCurrDst(36782)
updateCurrDst(36783)
updateCurrDst(36884)
updateCurrDst(36893)
updateCurrDst(36993)
updateCurrDst(37053)
updateCurrDst(37101)
updateCurrDst(37115)
updateCurrDst(37183)
updateCurrDst(37229)
updateCurrDst(37320)
updateCurrDst(37533)
updateCurrDst(37556)
updateCurrDst(37566)
updateCurrDst(37609)
updateCurrDst(37656)
updateCurrDst(37722)
updateCurrDst(37731)
updateCurrDst(37755)
updateCurrDst(37866)
Heartbeat CPU 0 instructions: 27000003 cycles: 8670820 heartbeat IPC: 3.20808 cumulative IPC: 3.11389 (Simulation time: 0 hr 3 min 2 sec) 
updateCurrDst(38300)
updateCurrDst(38303)
updateCurrDst(38503)
updateCurrDst(38697)
updateCurrDst(38747)
updateCurrDst(38893)
updateCurrDst(38897)
updateCurrDst(39464)
updateCurrDst(39528)
updateCurrDst(39542)
updateCurrDst(39567)
updateCurrDst(39622)
updateCurrDst(39731)
updateCurrDst(39750)
updateCurrDst(39801)
Heartbeat CPU 0 instructions: 28000000 cycles: 8990950 heartbeat IPC: 3.12372 cumulative IPC: 3.11424 (Simulation time: 0 hr 3 min 11 sec) 
updateCurrDst(39839)
updateCurrDst(39852)
updateCurrDst(39943)
updateCurrDst(39974)
updateCurrDst(40033)
updateCurrDst(40144)
updateCurrDst(40147)
updateCurrDst(40433)
updateCurrDst(40495)
updateCurrDst(40729)
updateCurrDst(40731)
updateCurrDst(40797)
updateCurrDst(40974)
updateCurrDst(40980)
updateCurrDst(41008)
updateCurrDst(41186)
updateCurrDst(41265)
updateCurrDst(41288)
updateCurrDst(41503)
updateCurrDst(41567)
Heartbeat CPU 0 instructions: 29000002 cycles: 9309263 heartbeat IPC: 3.14157 cumulative IPC: 3.11518 (Simulation time: 0 hr 3 min 20 sec) 
updateCurrDst(41740)
updateCurrDst(42119)
updateCurrDst(42144)
updateCurrDst(42226)
updateCurrDst(42319)
updateCurrDst(42561)
updateCurrDst(42648)
updateCurrDst(42658)
updateCurrDst(42711)
updateCurrDst(42758)
updateCurrDst(42848)
updateCurrDst(42855)
updateCurrDst(43155)
updateCurrDst(43339)
updateCurrDst(43365)
updateCurrDst(43382)
updateCurrDst(43473)
updateCurrDst(43477)
Heartbeat CPU 0 instructions: 30000001 cycles: 9629373 heartbeat IPC: 3.12392 cumulative IPC: 3.11547 (Simulation time: 0 hr 3 min 29 sec) 
updateCurrDst(43535)
updateCurrDst(43564)
updateCurrDst(43735)
updateCurrDst(43754)
updateCurrDst(43816)
updateCurrDst(43820)
updateCurrDst(43891)
updateCurrDst(43892)
updateCurrDst(43941)
updateCurrDst(44030)
updateCurrDst(44166)
updateCurrDst(44264)
updateCurrDst(44459)
updateCurrDst(44561)
updateCurrDst(44614)
updateCurrDst(44681)
updateCurrDst(44878)
updateCurrDst(44962)
updateCurrDst(45067)
updateCurrDst(45090)
Heartbeat CPU 0 instructions: 31000000 cycles: 9947807 heartbeat IPC: 3.14037 cumulative IPC: 3.11626 (Simulation time: 0 hr 3 min 36 sec) 
updateCurrDst(45468)
updateCurrDst(45474)
updateCurrDst(45508)
updateCurrDst(45532)
updateCurrDst(45601)
updateCurrDst(45840)
updateCurrDst(45898)
updateCurrDst(45899)
updateCurrDst(45999)
updateCurrDst(46010)
updateCurrDst(46111)
updateCurrDst(46122)
updateCurrDst(46216)
updateCurrDst(46300)
updateCurrDst(46416)
updateCurrDst(46465)
updateCurrDst(46489)
updateCurrDst(46610)
updateCurrDst(46709)
updateCurrDst(46858)
updateCurrDst(47021)
updateCurrDst(47024)
updateCurrDst(47036)
updateCurrDst(47058)
updateCurrDst(47094)
updateCurrDst(47255)
Heartbeat CPU 0 instructions: 32000001 cycles: 10269440 heartbeat IPC: 3.10914 cumulative IPC: 3.11604 (Simulation time: 0 hr 3 min 46 sec) 
updateCurrDst(47394)
updateCurrDst(47516)
updateCurrDst(47564)
updateCurrDst(47706)
updateCurrDst(47714)
updateCurrDst(47809)
updateCurrDst(48003)
updateCurrDst(48047)
updateCurrDst(48085)
updateCurrDst(48099)
updateCurrDst(48278)
updateCurrDst(48323)
updateCurrDst(48510)
updateCurrDst(48520)
updateCurrDst(48625)
updateCurrDst(48721)
updateCurrDst(48774)
updateCurrDst(48778)
updateCurrDst(48879)
updateCurrDst(49042)
updateCurrDst(49049)
updateCurrDst(49127)
updateCurrDst(49138)
updateCurrDst(49200)
updateCurrDst(49405)
updateCurrDst(49413)
updateCurrDst(49422)
updateCurrDst(49485)
Heartbeat CPU 0 instructions: 33000000 cycles: 10593113 heartbeat IPC: 3.08953 cumulative IPC: 3.11523 (Simulation time: 0 hr 3 min 53 sec) 
updateCurrDst(49541)
updateCurrDst(49577)
updateCurrDst(49834)
updateCurrDst(49847)
updateCurrDst(49888)
updateCurrDst(49941)
updateCurrDst(49973)
updateCurrDst(50189)
updateCurrDst(50268)
updateCurrDst(50281)
updateCurrDst(50288)
updateCurrDst(50503)
updateCurrDst(50630)
updateCurrDst(50829)
updateCurrDst(51010)
updateCurrDst(51051)
updateCurrDst(51164)
updateCurrDst(51167)
updateCurrDst(51232)
updateCurrDst(51272)
updateCurrDst(51576)
updateCurrDst(51621)
Heartbeat CPU 0 instructions: 34000003 cycles: 10916403 heartbeat IPC: 3.09321 cumulative IPC: 3.11458 (Simulation time: 0 hr 4 min 2 sec) 
updateCurrDst(51813)
updateCurrDst(51895)
updateCurrDst(52088)
updateCurrDst(52130)
updateCurrDst(52333)
updateCurrDst(52340)
updateCurrDst(52643)
updateCurrDst(52651)
updateCurrDst(52721)
updateCurrDst(52845)
updateCurrDst(53019)
updateCurrDst(53163)
Heartbeat CPU 0 instructions: 35000002 cycles: 11231149 heartbeat IPC: 3.17716 cumulative IPC: 3.11633 (Simulation time: 0 hr 4 min 10 sec) 
updateCurrDst(53234)
updateCurrDst(53487)
updateCurrDst(53490)
updateCurrDst(53517)
updateCurrDst(53627)
updateCurrDst(53706)
updateCurrDst(53821)
updateCurrDst(53842)
updateCurrDst(53926)
updateCurrDst(53957)
updateCurrDst(54064)
updateCurrDst(54112)
updateCurrDst(54149)
Heartbeat CPU 0 instructions: 36000001 cycles: 11543592 heartbeat IPC: 3.20058 cumulative IPC: 3.11861 (Simulation time: 0 hr 4 min 18 sec) 
updateCurrDst(54616)
updateCurrDst(54652)
updateCurrDst(54854)
updateCurrDst(54864)
updateCurrDst(55001)
updateCurrDst(55035)
updateCurrDst(55162)
updateCurrDst(55448)
updateCurrDst(55805)
updateCurrDst(55843)
updateCurrDst(55844)
updateCurrDst(55952)
updateCurrDst(56080)
updateCurrDst(56096)
Heartbeat CPU 0 instructions: 37000003 cycles: 11859872 heartbeat IPC: 3.16176 cumulative IPC: 3.11976 (Simulation time: 0 hr 4 min 27 sec) 
updateCurrDst(56290)
updateCurrDst(56299)
updateCurrDst(56330)
updateCurrDst(56365)
updateCurrDst(56417)
updateCurrDst(56429)
updateCurrDst(56551)
updateCurrDst(56610)
updateCurrDst(56837)
updateCurrDst(56891)
updateCurrDst(56904)
updateCurrDst(56951)
updateCurrDst(56966)
updateCurrDst(57033)
updateCurrDst(57035)
updateCurrDst(57042)
updateCurrDst(57117)
updateCurrDst(57234)
updateCurrDst(57541)
updateCurrDst(57626)
updateCurrDst(57691)
updateCurrDst(57749)
updateCurrDst(57842)
updateCurrDst(57880)
updateCurrDst(57927)
Heartbeat CPU 0 instructions: 38000001 cycles: 12180303 heartbeat IPC: 3.12079 cumulative IPC: 3.11979 (Simulation time: 0 hr 4 min 34 sec) 
updateCurrDst(58073)
updateCurrDst(58271)
updateCurrDst(58667)
updateCurrDst(58697)
updateCurrDst(58813)
updateCurrDst(58877)
updateCurrDst(58992)
updateCurrDst(59221)
updateCurrDst(59225)
updateCurrDst(59336)
updateCurrDst(59439)
updateCurrDst(59475)
updateCurrDst(59484)
updateCurrDst(59625)
updateCurrDst(59668)
updateCurrDst(59691)
updateCurrDst(59730)
Heartbeat CPU 0 instructions: 39000000 cycles: 12497607 heartbeat IPC: 3.15155 cumulative IPC: 3.1206 (Simulation time: 0 hr 4 min 41 sec) 
updateCurrDst(59776)
updateCurrDst(59850)
updateCurrDst(60051)
updateCurrDst(60340)
updateCurrDst(60522)
updateCurrDst(60625)
updateCurrDst(60942)
updateCurrDst(61040)
updateCurrDst(61102)
updateCurrDst(61332)
updateCurrDst(61434)
updateCurrDst(61476)
Heartbeat CPU 0 instructions: 40000002 cycles: 12817394 heartbeat IPC: 3.12709 cumulative IPC: 3.12076 (Simulation time: 0 hr 4 min 48 sec) 
updateCurrDst(61699)
updateCurrDst(61711)
updateCurrDst(61781)
updateCurrDst(61940)
updateCurrDst(62049)
updateCurrDst(62079)
updateCurrDst(62235)
updateCurrDst(62282)
updateCurrDst(62310)
updateCurrDst(62412)
updateCurrDst(62638)
updateCurrDst(62766)
updateCurrDst(62812)
updateCurrDst(62934)
updateCurrDst(62941)
updateCurrDst(62967)
updateCurrDst(62988)
updateCurrDst(63055)
updateCurrDst(63125)
updateCurrDst(63185)
updateCurrDst(63255)
updateCurrDst(63299)
Heartbeat CPU 0 instructions: 41000001 cycles: 13137415 heartbeat IPC: 3.12479 cumulative IPC: 3.12086 (Simulation time: 0 hr 4 min 56 sec) 
updateCurrDst(63700)
updateCurrDst(63757)
updateCurrDst(63838)
updateCurrDst(63853)
updateCurrDst(63905)
updateCurrDst(63933)
updateCurrDst(63995)
updateCurrDst(63999)
updateCurrDst(64076)
updateCurrDst(64287)
updateCurrDst(64626)
updateCurrDst(64946)
updateCurrDst(65053)
updateCurrDst(65117)
updateCurrDst(65120)
updateCurrDst(65288)
updateCurrDst(65299)
updateCurrDst(65363)
Heartbeat CPU 0 instructions: 42000000 cycles: 13457349 heartbeat IPC: 3.12564 cumulative IPC: 3.12097 (Simulation time: 0 hr 5 min 4 sec) 
updateCurrDst(65732)
updateCurrDst(65983)
updateCurrDst(65989)
updateCurrDst(66101)
updateCurrDst(66348)
updateCurrDst(66408)
updateCurrDst(66610)
updateCurrDst(66663)
updateCurrDst(66724)
updateCurrDst(66749)
updateCurrDst(66800)
updateCurrDst(66863)
Heartbeat CPU 0 instructions: 43000001 cycles: 13773395 heartbeat IPC: 3.1641 cumulative IPC: 3.12196 (Simulation time: 0 hr 5 min 13 sec) 
updateCurrDst(67145)
updateCurrDst(67265)
updateCurrDst(67492)
updateCurrDst(67793)
updateCurrDst(68014)
updateCurrDst(68111)
updateCurrDst(68315)
updateCurrDst(68423)
updateCurrDst(68486)
Heartbeat CPU 0 instructions: 44000000 cycles: 14089772 heartbeat IPC: 3.16078 cumulative IPC: 3.12283 (Simulation time: 0 hr 5 min 22 sec) 
updateCurrDst(68738)
updateCurrDst(69134)
updateCurrDst(69197)
updateCurrDst(69237)
updateCurrDst(69269)
updateCurrDst(69449)
updateCurrDst(69529)
updateCurrDst(69556)
updateCurrDst(69561)
updateCurrDst(69654)
updateCurrDst(69659)
updateCurrDst(69668)
updateCurrDst(69951)
updateCurrDst(70122)
updateCurrDst(70144)
updateCurrDst(70351)
Heartbeat CPU 0 instructions: 45000002 cycles: 14406900 heartbeat IPC: 3.15331 cumulative IPC: 3.1235 (Simulation time: 0 hr 5 min 30 sec) 
updateCurrDst(70457)
updateCurrDst(70505)
updateCurrDst(70541)
updateCurrDst(70755)
updateCurrDst(70881)
updateCurrDst(71017)
updateCurrDst(71030)
updateCurrDst(71139)
updateCurrDst(71276)
updateCurrDst(71449)
updateCurrDst(71524)
updateCurrDst(71530)
updateCurrDst(71556)
updateCurrDst(71626)
updateCurrDst(71813)
updateCurrDst(71896)
updateCurrDst(71980)
updateCurrDst(72003)
updateCurrDst(72097)
Heartbeat CPU 0 instructions: 46000003 cycles: 14725958 heartbeat IPC: 3.13423 cumulative IPC: 3.12374 (Simulation time: 0 hr 5 min 37 sec) 
updateCurrDst(72358)
updateCurrDst(72374)
updateCurrDst(72393)
updateCurrDst(72398)
updateCurrDst(72434)
updateCurrDst(72437)
updateCurrDst(72507)
updateCurrDst(72618)
updateCurrDst(72766)
updateCurrDst(73022)
updateCurrDst(73088)
updateCurrDst(73200)
updateCurrDst(73247)
updateCurrDst(73530)
updateCurrDst(73628)
updateCurrDst(73638)
updateCurrDst(73662)
updateCurrDst(74115)
Heartbeat CPU 0 instructions: 47000003 cycles: 15046150 heartbeat IPC: 3.12313 cumulative IPC: 3.12372 (Simulation time: 0 hr 5 min 44 sec) 
updateCurrDst(74149)
updateCurrDst(74245)
updateCurrDst(74253)
updateCurrDst(74303)
updateCurrDst(74396)
updateCurrDst(74480)
updateCurrDst(74786)
updateCurrDst(74788)
updateCurrDst(74875)
updateCurrDst(74890)
updateCurrDst(74902)
updateCurrDst(74918)
updateCurrDst(74992)
updateCurrDst(75140)
updateCurrDst(75210)
updateCurrDst(75362)
updateCurrDst(75375)
updateCurrDst(75511)
updateCurrDst(75610)
updateCurrDst(75730)
updateCurrDst(75859)
updateCurrDst(75916)
Heartbeat CPU 0 instructions: 48000001 cycles: 15366138 heartbeat IPC: 3.12511 cumulative IPC: 3.12375 (Simulation time: 0 hr 5 min 51 sec) 
updateCurrDst(76050)
updateCurrDst(76060)
updateCurrDst(76064)
updateCurrDst(76327)
updateCurrDst(76330)
updateCurrDst(76405)
updateCurrDst(76455)
updateCurrDst(76553)
updateCurrDst(76972)
updateCurrDst(77010)
updateCurrDst(77144)
updateCurrDst(77257)
updateCurrDst(77588)
updateCurrDst(77700)
updateCurrDst(77768)
updateCurrDst(77965)
Heartbeat CPU 0 instructions: 49000002 cycles: 15688095 heartbeat IPC: 3.10601 cumulative IPC: 3.12339 (Simulation time: 0 hr 6 min 0 sec) 
updateCurrDst(78111)
updateCurrDst(78184)
updateCurrDst(78217)
updateCurrDst(78327)
updateCurrDst(78378)
updateCurrDst(78533)
updateCurrDst(78538)
updateCurrDst(78602)
updateCurrDst(78677)
updateCurrDst(78731)
updateCurrDst(78733)
updateCurrDst(78781)
updateCurrDst(78871)
updateCurrDst(78916)
updateCurrDst(79119)
updateCurrDst(79121)
updateCurrDst(79266)
updateCurrDst(79375)
Heartbeat CPU 0 instructions: 50000000 cycles: 16001018 heartbeat IPC: 3.19567 cumulative IPC: 3.1248 (Simulation time: 0 hr 6 min 7 sec) 
updateCurrDst(79507)
updateCurrDst(79543)
updateCurrDst(79849)
updateCurrDst(79880)
updateCurrDst(79958)
updateCurrDst(80016)
updateCurrDst(80227)
updateCurrDst(80591)
updateCurrDst(80740)
updateCurrDst(80791)
updateCurrDst(80862)
updateCurrDst(81006)
updateCurrDst(81060)
Heartbeat CPU 0 instructions: 51000003 cycles: 16318255 heartbeat IPC: 3.15223 cumulative IPC: 3.12533 (Simulation time: 0 hr 6 min 14 sec) 
updateCurrDst(81409)
updateCurrDst(81457)
updateCurrDst(81503)
updateCurrDst(81513)
updateCurrDst(81644)
updateCurrDst(81711)
updateCurrDst(82149)
updateCurrDst(82209)
updateCurrDst(82225)
updateCurrDst(82412)
updateCurrDst(82521)
updateCurrDst(82642)
updateCurrDst(82752)
Heartbeat CPU 0 instructions: 52000003 cycles: 16634869 heartbeat IPC: 3.15842 cumulative IPC: 3.12596 (Simulation time: 0 hr 6 min 21 sec) 
updateCurrDst(82865)
updateCurrDst(82993)
updateCurrDst(83005)
updateCurrDst(83036)
updateCurrDst(83229)
updateCurrDst(83287)
updateCurrDst(83289)
updateCurrDst(83324)
updateCurrDst(83374)
updateCurrDst(83449)
updateCurrDst(83523)
updateCurrDst(83524)
updateCurrDst(83550)
updateCurrDst(83664)
updateCurrDst(83669)
updateCurrDst(83685)
updateCurrDst(83969)
updateCurrDst(84064)
updateCurrDst(84276)
updateCurrDst(84288)
updateCurrDst(84305)
updateCurrDst(84405)
updateCurrDst(84441)
updateCurrDst(84567)
updateCurrDst(84710)
updateCurrDst(84752)
Heartbeat CPU 0 instructions: 53000002 cycles: 16957354 heartbeat IPC: 3.10092 cumulative IPC: 3.12549 (Simulation time: 0 hr 6 min 30 sec) 
updateCurrDst(85056)
updateCurrDst(85114)
updateCurrDst(85115)
updateCurrDst(85191)
updateCurrDst(85452)
updateCurrDst(85663)
updateCurrDst(85884)
updateCurrDst(85894)
updateCurrDst(86057)
updateCurrDst(86164)
updateCurrDst(86306)
updateCurrDst(86607)
Heartbeat CPU 0 instructions: 54000001 cycles: 17275660 heartbeat IPC: 3.14163 cumulative IPC: 3.12579 (Simulation time: 0 hr 6 min 39 sec) 
updateCurrDst(86650)
updateCurrDst(86807)
updateCurrDst(86897)
updateCurrDst(86921)
updateCurrDst(87062)
updateCurrDst(87164)
updateCurrDst(87211)
updateCurrDst(87295)
updateCurrDst(87337)
updateCurrDst(87343)
updateCurrDst(87354)
updateCurrDst(87406)
updateCurrDst(87423)
updateCurrDst(87530)
updateCurrDst(87718)
updateCurrDst(87781)
updateCurrDst(87857)
updateCurrDst(87878)
updateCurrDst(87919)
updateCurrDst(87935)
updateCurrDst(88136)
updateCurrDst(88331)
Heartbeat CPU 0 instructions: 55000000 cycles: 17593026 heartbeat IPC: 3.15093 cumulative IPC: 3.12624 (Simulation time: 0 hr 6 min 47 sec) 
updateCurrDst(88400)
updateCurrDst(88628)
updateCurrDst(88927)
updateCurrDst(88988)
updateCurrDst(89111)
updateCurrDst(89138)
updateCurrDst(89195)
updateCurrDst(89253)
updateCurrDst(89349)
updateCurrDst(89614)
updateCurrDst(89629)
updateCurrDst(89665)
updateCurrDst(89681)
updateCurrDst(89689)
updateCurrDst(89739)
updateCurrDst(89854)
updateCurrDst(89906)
updateCurrDst(90059)
updateCurrDst(90093)
updateCurrDst(90188)
updateCurrDst(90224)
Heartbeat CPU 0 instructions: 56000001 cycles: 17913747 heartbeat IPC: 3.11798 cumulative IPC: 3.12609 (Simulation time: 0 hr 6 min 56 sec) 
updateCurrDst(90418)
updateCurrDst(90437)
updateCurrDst(90522)
updateCurrDst(90523)
updateCurrDst(90710)
updateCurrDst(90716)
updateCurrDst(90740)
updateCurrDst(90804)
updateCurrDst(90978)
updateCurrDst(91111)
updateCurrDst(91124)
updateCurrDst(91125)
updateCurrDst(91327)
updateCurrDst(91494)
updateCurrDst(91607)
updateCurrDst(91779)
updateCurrDst(91796)
updateCurrDst(91849)
updateCurrDst(91858)
updateCurrDst(91896)
updateCurrDst(92027)
updateCurrDst(92054)
updateCurrDst(92138)
updateCurrDst(92198)
updateCurrDst(92257)
Heartbeat CPU 0 instructions: 57000000 cycles: 18237269 heartbeat IPC: 3.09098 cumulative IPC: 3.12547 (Simulation time: 0 hr 7 min 4 sec) 
updateCurrDst(92640)
updateCurrDst(92695)
updateCurrDst(92718)
updateCurrDst(92796)
updateCurrDst(92893)
updateCurrDst(93036)
updateCurrDst(93189)
updateCurrDst(93364)
updateCurrDst(93372)
updateCurrDst(93405)
updateCurrDst(93607)
updateCurrDst(93627)
updateCurrDst(93669)
updateCurrDst(93710)
updateCurrDst(93859)
updateCurrDst(94004)
updateCurrDst(94030)
updateCurrDst(94087)
updateCurrDst(94177)
updateCurrDst(94299)
updateCurrDst(94357)
updateCurrDst(94387)
updateCurrDst(94427)
updateCurrDst(94480)
updateCurrDst(94481)
Heartbeat CPU 0 instructions: 58000000 cycles: 18558405 heartbeat IPC: 3.11395 cumulative IPC: 3.12527 (Simulation time: 0 hr 7 min 11 sec) 
updateCurrDst(94628)
updateCurrDst(94786)
updateCurrDst(94817)
updateCurrDst(94841)
updateCurrDst(94842)
updateCurrDst(95049)
updateCurrDst(95058)
updateCurrDst(95269)
updateCurrDst(95309)
updateCurrDst(95396)
updateCurrDst(95435)
updateCurrDst(95460)
updateCurrDst(95498)
updateCurrDst(95775)
updateCurrDst(95880)
updateCurrDst(96032)
Heartbeat CPU 0 instructions: 59000000 cycles: 18874759 heartbeat IPC: 3.16102 cumulative IPC: 3.12587 (Simulation time: 0 hr 7 min 19 sec) 
updateCurrDst(96144)
updateCurrDst(96243)
updateCurrDst(96377)
updateCurrDst(96489)
updateCurrDst(96511)
updateCurrDst(96611)
updateCurrDst(96623)
updateCurrDst(96637)
updateCurrDst(96672)
updateCurrDst(96783)
updateCurrDst(96871)
updateCurrDst(96954)
updateCurrDst(97033)
updateCurrDst(97109)
updateCurrDst(97289)
updateCurrDst(97327)
updateCurrDst(97348)
updateCurrDst(97504)
updateCurrDst(97509)
updateCurrDst(97521)
updateCurrDst(97568)
updateCurrDst(97598)
updateCurrDst(97762)
updateCurrDst(97839)
updateCurrDst(97846)
updateCurrDst(97869)
updateCurrDst(97996)
Heartbeat CPU 0 instructions: 60000000 cycles: 19195149 heartbeat IPC: 3.1212 cumulative IPC: 3.12579 (Simulation time: 0 hr 7 min 26 sec) 
updateCurrDst(98173)
updateCurrDst(98282)
updateCurrDst(98370)
updateCurrDst(98428)
updateCurrDst(98511)
updateCurrDst(98571)
updateCurrDst(98602)
updateCurrDst(98620)
updateCurrDst(98707)
updateCurrDst(98723)
updateCurrDst(98841)
updateCurrDst(98904)
updateCurrDst(98912)
updateCurrDst(98929)
updateCurrDst(98933)
updateCurrDst(98961)
updateCurrDst(99696)
Heartbeat CPU 0 instructions: 61000003 cycles: 19512380 heartbeat IPC: 3.15229 cumulative IPC: 3.12622 (Simulation time: 0 hr 7 min 34 sec) 
updateCurrDst(99787)
updateCurrDst(99959)
updateCurrDst(100058)
updateCurrDst(100260)
updateCurrDst(100375)
updateCurrDst(100489)
updateCurrDst(100599)
updateCurrDst(100702)
updateCurrDst(100945)
updateCurrDst(100973)
updateCurrDst(101186)
updateCurrDst(101206)
updateCurrDst(101221)
updateCurrDst(101249)
Heartbeat CPU 0 instructions: 62000000 cycles: 19829035 heartbeat IPC: 3.158 cumulative IPC: 3.12673 (Simulation time: 0 hr 7 min 43 sec) 
updateCurrDst(101458)
updateCurrDst(101489)
updateCurrDst(101506)
updateCurrDst(101518)
updateCurrDst(101559)
updateCurrDst(101639)
updateCurrDst(101732)
updateCurrDst(101742)
updateCurrDst(101926)
updateCurrDst(101954)
updateCurrDst(102033)
updateCurrDst(102046)
updateCurrDst(102081)
updateCurrDst(102125)
updateCurrDst(102179)
updateCurrDst(102335)
updateCurrDst(102350)
updateCurrDst(102351)
updateCurrDst(102506)
updateCurrDst(102541)
updateCurrDst(102614)
updateCurrDst(102784)
updateCurrDst(102858)
updateCurrDst(103108)
updateCurrDst(103140)
updateCurrDst(103203)
Heartbeat CPU 0 instructions: 63000003 cycles: 20149136 heartbeat IPC: 3.12402 cumulative IPC: 3.12669 (Simulation time: 0 hr 7 min 51 sec) 
updateCurrDst(103322)
updateCurrDst(103443)
updateCurrDst(103518)
updateCurrDst(103612)
updateCurrDst(103701)
updateCurrDst(103774)
updateCurrDst(103924)
updateCurrDst(103950)
updateCurrDst(104041)
updateCurrDst(104123)
updateCurrDst(104140)
updateCurrDst(104272)
updateCurrDst(104289)
updateCurrDst(104409)
updateCurrDst(104486)
updateCurrDst(104507)
updateCurrDst(104515)
updateCurrDst(104551)
updateCurrDst(104601)
updateCurrDst(104727)
updateCurrDst(104738)
Heartbeat CPU 0 instructions: 64000003 cycles: 20463051 heartbeat IPC: 3.18558 cumulative IPC: 3.12759 (Simulation time: 0 hr 7 min 58 sec) 
updateCurrDst(104844)
updateCurrDst(104876)
updateCurrDst(104993)
updateCurrDst(104995)
updateCurrDst(105036)
updateCurrDst(105181)
updateCurrDst(105185)
updateCurrDst(105233)
updateCurrDst(105355)
updateCurrDst(105494)
updateCurrDst(105726)
updateCurrDst(105748)
updateCurrDst(105799)
updateCurrDst(105904)
updateCurrDst(105919)
updateCurrDst(106031)
updateCurrDst(106116)
updateCurrDst(106280)
updateCurrDst(106287)
updateCurrDst(106544)
updateCurrDst(106611)
updateCurrDst(106618)
Heartbeat CPU 0 instructions: 65000000 cycles: 20782945 heartbeat IPC: 3.12603 cumulative IPC: 3.12756 (Simulation time: 0 hr 8 min 8 sec) 
updateCurrDst(106705)
updateCurrDst(106731)
updateCurrDst(106788)
updateCurrDst(106791)
updateCurrDst(106811)
updateCurrDst(106812)
updateCurrDst(106873)
updateCurrDst(106992)
updateCurrDst(107173)
updateCurrDst(107177)
updateCurrDst(107366)
updateCurrDst(107523)
updateCurrDst(107577)
updateCurrDst(107679)
updateCurrDst(107824)
updateCurrDst(108059)
updateCurrDst(108249)
updateCurrDst(108262)
updateCurrDst(108365)
updateCurrDst(108395)
updateCurrDst(108404)
updateCurrDst(108434)
updateCurrDst(108550)
Heartbeat CPU 0 instructions: 66000000 cycles: 21103729 heartbeat IPC: 3.11736 cumulative IPC: 3.12741 (Simulation time: 0 hr 8 min 17 sec) 
updateCurrDst(108681)
updateCurrDst(108714)
updateCurrDst(108759)
updateCurrDst(108776)
updateCurrDst(108941)
updateCurrDst(109016)
updateCurrDst(109076)
updateCurrDst(109088)
updateCurrDst(109519)
updateCurrDst(109638)
updateCurrDst(109943)
updateCurrDst(109976)
updateCurrDst(110214)
updateCurrDst(110290)
updateCurrDst(110400)
updateCurrDst(110468)
updateCurrDst(110505)
updateCurrDst(110602)
Heartbeat CPU 0 instructions: 67000002 cycles: 21424945 heartbeat IPC: 3.11318 cumulative IPC: 3.1272 (Simulation time: 0 hr 8 min 24 sec) 
updateCurrDst(110789)
updateCurrDst(110870)
updateCurrDst(110896)
updateCurrDst(110978)
updateCurrDst(111045)
updateCurrDst(111433)
updateCurrDst(111494)
updateCurrDst(111617)
updateCurrDst(111806)
updateCurrDst(111845)
updateCurrDst(111918)
updateCurrDst(112005)
updateCurrDst(112046)
updateCurrDst(112200)
updateCurrDst(112315)
updateCurrDst(112342)
updateCurrDst(112347)
updateCurrDst(112429)
updateCurrDst(112438)
updateCurrDst(112472)
Heartbeat CPU 0 instructions: 68000000 cycles: 21745072 heartbeat IPC: 3.12375 cumulative IPC: 3.12715 (Simulation time: 0 hr 8 min 31 sec) 
updateCurrDst(112632)
updateCurrDst(112675)
updateCurrDst(112715)
updateCurrDst(112898)
updateCurrDst(113014)
updateCurrDst(113081)
updateCurrDst(113592)
updateCurrDst(113780)
updateCurrDst(113825)
updateCurrDst(113860)
updateCurrDst(113922)
updateCurrDst(113946)
updateCurrDst(114224)
updateCurrDst(114243)
Heartbeat CPU 0 instructions: 69000000 cycles: 22064331 heartbeat IPC: 3.13225 cumulative IPC: 3.12722 (Simulation time: 0 hr 8 min 39 sec) 
updateCurrDst(114550)
updateCurrDst(114652)
updateCurrDst(114766)
updateCurrDst(114845)
updateCurrDst(115003)
updateCurrDst(115011)
updateCurrDst(115094)
updateCurrDst(115310)
updateCurrDst(115403)
updateCurrDst(115627)
updateCurrDst(115771)
updateCurrDst(115803)
updateCurrDst(115831)
updateCurrDst(115862)
updateCurrDst(116106)
updateCurrDst(116128)
Heartbeat CPU 0 instructions: 70000003 cycles: 22382264 heartbeat IPC: 3.14533 cumulative IPC: 3.12748 (Simulation time: 0 hr 8 min 46 sec) 
updateCurrDst(116272)
updateCurrDst(116355)
updateCurrDst(116488)
updateCurrDst(116491)
updateCurrDst(116545)
updateCurrDst(116925)
updateCurrDst(116926)
updateCurrDst(116986)
updateCurrDst(117095)
updateCurrDst(117145)
updateCurrDst(117184)
updateCurrDst(117212)
updateCurrDst(117299)
updateCurrDst(117344)
updateCurrDst(117360)
updateCurrDst(117623)
updateCurrDst(117680)
updateCurrDst(117719)
updateCurrDst(117786)
updateCurrDst(117871)
Heartbeat CPU 0 instructions: 71000001 cycles: 22701455 heartbeat IPC: 3.13291 cumulative IPC: 3.12755 (Simulation time: 0 hr 8 min 54 sec) 
updateCurrDst(118041)
updateCurrDst(118099)
updateCurrDst(118209)
updateCurrDst(118288)
updateCurrDst(118386)
updateCurrDst(118443)
updateCurrDst(118488)
updateCurrDst(118498)
updateCurrDst(118539)
updateCurrDst(118618)
updateCurrDst(118637)
updateCurrDst(118689)
updateCurrDst(118804)
updateCurrDst(118819)
updateCurrDst(118884)
updateCurrDst(119179)
updateCurrDst(119198)
updateCurrDst(119212)
updateCurrDst(119225)
updateCurrDst(119463)
updateCurrDst(119464)
updateCurrDst(119534)
updateCurrDst(119560)
updateCurrDst(119565)
updateCurrDst(119676)
updateCurrDst(119699)
updateCurrDst(119721)
Heartbeat CPU 0 instructions: 72000002 cycles: 23020336 heartbeat IPC: 3.13597 cumulative IPC: 3.12767 (Simulation time: 0 hr 9 min 3 sec) 
updateCurrDst(119891)
updateCurrDst(119977)
updateCurrDst(120039)
updateCurrDst(120079)
updateCurrDst(120107)
updateCurrDst(120169)
updateCurrDst(120420)
updateCurrDst(120521)
updateCurrDst(120617)
updateCurrDst(120959)
updateCurrDst(121255)
updateCurrDst(121275)
updateCurrDst(121297)
updateCurrDst(121428)
Heartbeat CPU 0 instructions: 73000003 cycles: 23337358 heartbeat IPC: 3.15436 cumulative IPC: 3.12803 (Simulation time: 0 hr 9 min 11 sec) 
updateCurrDst(121551)
updateCurrDst(121555)
updateCurrDst(121574)
updateCurrDst(121583)
updateCurrDst(121603)
updateCurrDst(121639)
updateCurrDst(121723)
updateCurrDst(121856)
updateCurrDst(122025)
updateCurrDst(122219)
updateCurrDst(122381)
updateCurrDst(122473)
updateCurrDst(122530)
updateCurrDst(122597)
updateCurrDst(122742)
updateCurrDst(122792)
updateCurrDst(122863)
updateCurrDst(122960)
updateCurrDst(122983)
updateCurrDst(123083)
updateCurrDst(123116)
updateCurrDst(123198)
updateCurrDst(123229)
updateCurrDst(123231)
Heartbeat CPU 0 instructions: 74000001 cycles: 23655525 heartbeat IPC: 3.143 cumulative IPC: 3.12823 (Simulation time: 0 hr 9 min 18 sec) 
updateCurrDst(123762)
updateCurrDst(123790)
updateCurrDst(123904)
updateCurrDst(124097)
updateCurrDst(124151)
updateCurrDst(124219)
updateCurrDst(124514)
updateCurrDst(124542)
updateCurrDst(124577)
updateCurrDst(124649)
updateCurrDst(124715)
updateCurrDst(124863)
Heartbeat CPU 0 instructions: 75000001 cycles: 23972667 heartbeat IPC: 3.15316 cumulative IPC: 3.12856 (Simulation time: 0 hr 9 min 26 sec) 

Warmup complete CPU 0 instructions: 75000001 cycles: 23972667 (Simulation time: 0 hr 9 min 26 sec) 

updateCurrDst(125192)
updateCurrDst(125587)
updateCurrDst(125604)
updateCurrDst(125629)
updateCurrDst(125718)
updateCurrDst(125731)
updateCurrDst(125974)
updateCurrDst(126069)
updateCurrDst(126103)
updateCurrDst(126329)
updateCurrDst(126382)
updateCurrDst(126520)
updateCurrDst(126522)
Heartbeat CPU 0 instructions: 76000001 cycles: 27020987 heartbeat IPC: 0.32805 cumulative IPC: 0.32805 (Simulation time: 0 hr 9 min 34 sec) 
updateCurrDst(126716)
updateCurrDst(126733)
updateCurrDst(126848)
updateCurrDst(126850)
updateCurrDst(126991)
updateCurrDst(127005)
updateCurrDst(127094)
updateCurrDst(127208)
updateCurrDst(127241)
updateCurrDst(127412)
updateCurrDst(127482)
updateCurrDst(127488)
updateCurrDst(127626)
updateCurrDst(127687)
updateCurrDst(127688)
updateCurrDst(127766)
updateCurrDst(127816)
updateCurrDst(127916)
updateCurrDst(128011)
updateCurrDst(128070)
updateCurrDst(128082)
updateCurrDst(128162)
updateCurrDst(128260)
Heartbeat CPU 0 instructions: 77000000 cycles: 30075379 heartbeat IPC: 0.327397 cumulative IPC: 0.327723 (Simulation time: 0 hr 9 min 45 sec) 
updateCurrDst(128448)
updateCurrDst(128463)
updateCurrDst(128661)
updateCurrDst(129112)
updateCurrDst(129236)
updateCurrDst(129264)
updateCurrDst(129404)
updateCurrDst(129494)
updateCurrDst(129519)
updateCurrDst(129523)
updateCurrDst(129597)
updateCurrDst(129831)
updateCurrDst(129913)
Heartbeat CPU 0 instructions: 78000001 cycles: 33112333 heartbeat IPC: 0.329278 cumulative IPC: 0.32824 (Simulation time: 0 hr 9 min 52 sec) 
updateCurrDst(130160)
updateCurrDst(130173)
updateCurrDst(130209)
updateCurrDst(130347)
updateCurrDst(130663)
updateCurrDst(130763)
updateCurrDst(130878)
updateCurrDst(130945)
updateCurrDst(131024)
updateCurrDst(131046)
updateCurrDst(131052)
updateCurrDst(131290)
updateCurrDst(131352)
updateCurrDst(131410)
updateCurrDst(131461)
updateCurrDst(131575)
updateCurrDst(131751)
Heartbeat CPU 0 instructions: 79000000 cycles: 36163745 heartbeat IPC: 0.327717 cumulative IPC: 0.328109 (Simulation time: 0 hr 10 min 1 sec) 
updateCurrDst(131874)
updateCurrDst(131987)
updateCurrDst(131995)
updateCurrDst(132008)
updateCurrDst(132458)
updateCurrDst(132571)
updateCurrDst(132584)
updateCurrDst(132671)
updateCurrDst(132710)
updateCurrDst(132744)
updateCurrDst(132753)
updateCurrDst(132775)
updateCurrDst(132804)
updateCurrDst(132849)
updateCurrDst(132873)
updateCurrDst(132885)
updateCurrDst(132961)
updateCurrDst(133419)
updateCurrDst(133524)
updateCurrDst(133649)
Heartbeat CPU 0 instructions: 80000000 cycles: 39223209 heartbeat IPC: 0.326855 cumulative IPC: 0.327857 (Simulation time: 0 hr 10 min 9 sec) 
updateCurrDst(133849)
updateCurrDst(133988)
updateCurrDst(134073)
updateCurrDst(134142)
updateCurrDst(134243)
updateCurrDst(134382)
updateCurrDst(134438)
updateCurrDst(134489)
updateCurrDst(134790)
updateCurrDst(134871)
updateCurrDst(134910)
updateCurrDst(134992)
updateCurrDst(135192)
updateCurrDst(135209)
updateCurrDst(135213)
updateCurrDst(135215)
Heartbeat CPU 0 instructions: 81000002 cycles: 42269227 heartbeat IPC: 0.328298 cumulative IPC: 0.327931 (Simulation time: 0 hr 10 min 18 sec) 
updateCurrDst(135441)
updateCurrDst(135494)
updateCurrDst(135541)
updateCurrDst(135649)
updateCurrDst(135677)
updateCurrDst(135701)
updateCurrDst(135808)
updateCurrDst(135899)
updateCurrDst(135916)
updateCurrDst(135977)
updateCurrDst(136042)
updateCurrDst(136198)
updateCurrDst(136361)
updateCurrDst(136393)
updateCurrDst(136512)
updateCurrDst(136857)
updateCurrDst(136868)
updateCurrDst(136898)
Heartbeat CPU 0 instructions: 82000001 cycles: 45331118 heartbeat IPC: 0.326595 cumulative IPC: 0.327739 (Simulation time: 0 hr 10 min 27 sec) 
updateCurrDst(137073)
updateCurrDst(137309)
updateCurrDst(137628)
updateCurrDst(137731)
updateCurrDst(137922)
updateCurrDst(138409)
updateCurrDst(138773)
updateCurrDst(138839)
updateCurrDst(138991)
Heartbeat CPU 0 instructions: 83000001 cycles: 48370944 heartbeat IPC: 0.328966 cumulative IPC: 0.327892 (Simulation time: 0 hr 10 min 36 sec) 
updateCurrDst(139105)
updateCurrDst(139132)
updateCurrDst(139428)
updateCurrDst(139445)
updateCurrDst(139573)
updateCurrDst(139627)
updateCurrDst(139696)
updateCurrDst(139777)
updateCurrDst(139820)
updateCurrDst(139869)
updateCurrDst(139898)
updateCurrDst(140282)
updateCurrDst(140285)
updateCurrDst(140324)
updateCurrDst(140409)
updateCurrDst(140453)
updateCurrDst(140466)
updateCurrDst(140526)
updateCurrDst(140639)
updateCurrDst(140667)
updateCurrDst(140792)
updateCurrDst(140829)
updateCurrDst(140884)
updateCurrDst(140957)
updateCurrDst(141010)
updateCurrDst(141107)
updateCurrDst(141129)
updateCurrDst(141142)
Heartbeat CPU 0 instructions: 84000000 cycles: 51407214 heartbeat IPC: 0.329351 cumulative IPC: 0.328054 (Simulation time: 0 hr 10 min 44 sec) 
updateCurrDst(141242)
updateCurrDst(141245)
updateCurrDst(141306)
updateCurrDst(141307)
updateCurrDst(141376)
updateCurrDst(141525)
updateCurrDst(141588)
updateCurrDst(141643)
updateCurrDst(141679)
updateCurrDst(141798)
updateCurrDst(141859)
updateCurrDst(141889)
updateCurrDst(141922)
updateCurrDst(141952)
updateCurrDst(142185)
updateCurrDst(142318)
updateCurrDst(142492)
updateCurrDst(142520)
updateCurrDst(142528)
updateCurrDst(142539)
updateCurrDst(142566)
updateCurrDst(142602)
updateCurrDst(142893)
updateCurrDst(142906)
Heartbeat CPU 0 instructions: 85000000 cycles: 54464050 heartbeat IPC: 0.327136 cumulative IPC: 0.327961 (Simulation time: 0 hr 10 min 53 sec) 
updateCurrDst(142936)
updateCurrDst(142957)
updateCurrDst(143272)
updateCurrDst(143362)
updateCurrDst(143416)
updateCurrDst(143775)
updateCurrDst(143972)
updateCurrDst(144039)
updateCurrDst(144217)
updateCurrDst(144224)
updateCurrDst(144290)
updateCurrDst(144501)
Heartbeat CPU 0 instructions: 86000000 cycles: 57515118 heartbeat IPC: 0.327754 cumulative IPC: 0.327943 (Simulation time: 0 hr 11 min 2 sec) 
updateCurrDst(144670)
updateCurrDst(144711)
updateCurrDst(144730)
updateCurrDst(144956)
updateCurrDst(145001)
updateCurrDst(145099)
updateCurrDst(145124)
updateCurrDst(145268)
updateCurrDst(145395)
updateCurrDst(145487)
updateCurrDst(145665)
updateCurrDst(145713)
updateCurrDst(146131)
updateCurrDst(146134)
updateCurrDst(146135)
updateCurrDst(146249)
updateCurrDst(146255)
updateCurrDst(146267)
updateCurrDst(146340)
Heartbeat CPU 0 instructions: 87000000 cycles: 60550062 heartbeat IPC: 0.329495 cumulative IPC: 0.328071 (Simulation time: 0 hr 11 min 10 sec) 
updateCurrDst(146615)
updateCurrDst(146700)
updateCurrDst(146815)
updateCurrDst(146826)
updateCurrDst(146890)
updateCurrDst(147045)
updateCurrDst(147087)
updateCurrDst(147306)
updateCurrDst(147317)
updateCurrDst(147378)
updateCurrDst(147397)
updateCurrDst(147427)
updateCurrDst(147448)
updateCurrDst(147527)
updateCurrDst(147774)
updateCurrDst(147799)
updateCurrDst(147891)
updateCurrDst(148036)
updateCurrDst(148100)
updateCurrDst(148106)
updateCurrDst(148205)
updateCurrDst(148238)
updateCurrDst(148341)
Heartbeat CPU 0 instructions: 88000000 cycles: 63590529 heartbeat IPC: 0.328897 cumulative IPC: 0.328135 (Simulation time: 0 hr 11 min 19 sec) 
updateCurrDst(148437)
updateCurrDst(148444)
updateCurrDst(148519)
updateCurrDst(148545)
updateCurrDst(148630)
updateCurrDst(148646)
updateCurrDst(148674)
updateCurrDst(148810)
updateCurrDst(148837)
updateCurrDst(148856)
updateCurrDst(148906)
updateCurrDst(149011)
updateCurrDst(149134)
updateCurrDst(149205)
updateCurrDst(149339)
updateCurrDst(149373)
updateCurrDst(149419)
updateCurrDst(149544)
updateCurrDst(149556)
updateCurrDst(149584)
updateCurrDst(149650)
updateCurrDst(149717)
updateCurrDst(149870)
updateCurrDst(150005)
Heartbeat CPU 0 instructions: 89000002 cycles: 66655922 heartbeat IPC: 0.326223 cumulative IPC: 0.327998 (Simulation time: 0 hr 11 min 27 sec) 
updateCurrDst(150030)
updateCurrDst(150280)
updateCurrDst(150395)
updateCurrDst(150724)
updateCurrDst(150931)
updateCurrDst(150949)
updateCurrDst(151031)
updateCurrDst(151139)
updateCurrDst(151244)
updateCurrDst(151250)
updateCurrDst(151257)
updateCurrDst(151284)
updateCurrDst(151307)
updateCurrDst(151317)
updateCurrDst(151654)
updateCurrDst(151712)
updateCurrDst(152050)
updateCurrDst(152076)
Heartbeat CPU 0 instructions: 90000000 cycles: 69697262 heartbeat IPC: 0.328802 cumulative IPC: 0.328051 (Simulation time: 0 hr 11 min 34 sec) 
updateCurrDst(152350)
updateCurrDst(152647)
updateCurrDst(152653)
updateCurrDst(152677)
updateCurrDst(152678)
updateCurrDst(152788)
updateCurrDst(152862)
updateCurrDst(153068)
updateCurrDst(153213)
updateCurrDst(153215)
updateCurrDst(153232)
updateCurrDst(153279)
updateCurrDst(153379)
updateCurrDst(153391)
updateCurrDst(153520)
updateCurrDst(153671)
updateCurrDst(153688)
updateCurrDst(153790)
Heartbeat CPU 0 instructions: 91000001 cycles: 72763778 heartbeat IPC: 0.326103 cumulative IPC: 0.327929 (Simulation time: 0 hr 11 min 44 sec) 
updateCurrDst(153946)
updateCurrDst(154029)
updateCurrDst(154073)
updateCurrDst(154235)
updateCurrDst(154254)
updateCurrDst(154292)
updateCurrDst(154326)
updateCurrDst(154336)
updateCurrDst(154373)
updateCurrDst(154563)
updateCurrDst(154583)
updateCurrDst(154597)
updateCurrDst(154989)
updateCurrDst(155110)
updateCurrDst(155255)
updateCurrDst(155264)
updateCurrDst(155305)
updateCurrDst(155378)
updateCurrDst(155501)
Heartbeat CPU 0 instructions: 92000000 cycles: 75808644 heartbeat IPC: 0.328421 cumulative IPC: 0.327958 (Simulation time: 0 hr 11 min 52 sec) 
updateCurrDst(155821)
updateCurrDst(155880)
updateCurrDst(155917)
updateCurrDst(155951)
updateCurrDst(156123)
updateCurrDst(156126)
updateCurrDst(156143)
updateCurrDst(156146)
updateCurrDst(156164)
updateCurrDst(156285)
updateCurrDst(156492)
updateCurrDst(156632)
updateCurrDst(156868)
updateCurrDst(157023)
updateCurrDst(157263)
Heartbeat CPU 0 instructions: 93000000 cycles: 78864490 heartbeat IPC: 0.327242 cumulative IPC: 0.327918 (Simulation time: 0 hr 12 min 0 sec) 
updateCurrDst(157408)
updateCurrDst(157465)
updateCurrDst(157472)
updateCurrDst(157485)
updateCurrDst(157517)
updateCurrDst(157593)
updateCurrDst(157611)
updateCurrDst(157679)
updateCurrDst(157735)
updateCurrDst(157799)
updateCurrDst(157857)
updateCurrDst(157972)
updateCurrDst(158040)
updateCurrDst(158109)
updateCurrDst(158332)
updateCurrDst(158416)
updateCurrDst(158507)
updateCurrDst(158594)
updateCurrDst(158677)
updateCurrDst(158739)
updateCurrDst(158804)
updateCurrDst(158873)
Heartbeat CPU 0 instructions: 94000000 cycles: 81920048 heartbeat IPC: 0.327272 cumulative IPC: 0.327884 (Simulation time: 0 hr 12 min 9 sec) 
updateCurrDst(158952)
updateCurrDst(159056)
updateCurrDst(159198)
updateCurrDst(159381)
updateCurrDst(159698)
updateCurrDst(159998)
updateCurrDst(160061)
updateCurrDst(160065)
updateCurrDst(160214)
updateCurrDst(160291)
updateCurrDst(160311)
updateCurrDst(160321)
updateCurrDst(160515)
updateCurrDst(160649)
updateCurrDst(160723)
updateCurrDst(160733)
updateCurrDst(160771)
Heartbeat CPU 0 instructions: 95000001 cycles: 84964433 heartbeat IPC: 0.328474 cumulative IPC: 0.327913 (Simulation time: 0 hr 12 min 17 sec) 
updateCurrDst(161026)
updateCurrDst(161075)
updateCurrDst(161205)
updateCurrDst(161241)
updateCurrDst(161353)
updateCurrDst(161440)
updateCurrDst(161554)
updateCurrDst(161676)
updateCurrDst(161857)
updateCurrDst(161932)
updateCurrDst(161944)
updateCurrDst(161954)
updateCurrDst(161960)
updateCurrDst(161974)
updateCurrDst(161979)
updateCurrDst(162025)
updateCurrDst(162047)
updateCurrDst(162062)
updateCurrDst(162120)
updateCurrDst(162170)
updateCurrDst(162194)
updateCurrDst(162215)
Heartbeat CPU 0 instructions: 96000000 cycles: 88024677 heartbeat IPC: 0.326771 cumulative IPC: 0.327859 (Simulation time: 0 hr 12 min 27 sec) 
updateCurrDst(162841)
updateCurrDst(162925)
updateCurrDst(163025)
updateCurrDst(163446)
updateCurrDst(163450)
updateCurrDst(163461)
updateCurrDst(163525)
updateCurrDst(163618)
updateCurrDst(163756)
updateCurrDst(164120)
updateCurrDst(164204)
Heartbeat CPU 0 instructions: 97000001 cycles: 91096080 heartbeat IPC: 0.325584 cumulative IPC: 0.327754 (Simulation time: 0 hr 12 min 36 sec) 
updateCurrDst(164411)
updateCurrDst(164728)
updateCurrDst(164776)
updateCurrDst(164814)
updateCurrDst(164833)
updateCurrDst(165102)
updateCurrDst(165250)
updateCurrDst(165341)
updateCurrDst(165373)
updateCurrDst(165555)
updateCurrDst(165676)
updateCurrDst(165731)
updateCurrDst(165891)
updateCurrDst(166152)
Heartbeat CPU 0 instructions: 98000000 cycles: 94159226 heartbeat IPC: 0.326461 cumulative IPC: 0.327698 (Simulation time: 0 hr 12 min 43 sec) 
updateCurrDst(166483)
updateCurrDst(166524)
updateCurrDst(166740)
updateCurrDst(166804)
updateCurrDst(166886)
updateCurrDst(167256)
updateCurrDst(167360)
updateCurrDst(167398)
updateCurrDst(167606)
Heartbeat CPU 0 instructions: 99000000 cycles: 97228016 heartbeat IPC: 0.325861 cumulative IPC: 0.327621 (Simulation time: 0 hr 12 min 51 sec) 
updateCurrDst(167691)
updateCurrDst(167718)
updateCurrDst(167766)
updateCurrDst(167782)
updateCurrDst(168009)
updateCurrDst(168092)
updateCurrDst(168118)
updateCurrDst(168207)
updateCurrDst(168237)
updateCurrDst(168444)
updateCurrDst(168488)
updateCurrDst(168710)
updateCurrDst(168836)
updateCurrDst(168870)
updateCurrDst(168918)
updateCurrDst(168999)
updateCurrDst(169066)
updateCurrDst(169182)
updateCurrDst(169205)
updateCurrDst(169215)
Heartbeat CPU 0 instructions: 100000001 cycles: 100301383 heartbeat IPC: 0.325376 cumulative IPC: 0.327531 (Simulation time: 0 hr 12 min 58 sec) 
updateCurrDst(169326)
updateCurrDst(169327)
updateCurrDst(169410)
updateCurrDst(169596)
updateCurrDst(169772)
updateCurrDst(169866)
updateCurrDst(169890)
updateCurrDst(170169)
updateCurrDst(170179)
updateCurrDst(170201)
updateCurrDst(170308)
updateCurrDst(170336)
updateCurrDst(170353)
updateCurrDst(170456)
updateCurrDst(170476)
updateCurrDst(170480)
updateCurrDst(170516)
updateCurrDst(170565)
updateCurrDst(170589)
updateCurrDst(170594)
updateCurrDst(170612)
updateCurrDst(170768)
updateCurrDst(170781)
updateCurrDst(170880)
updateCurrDst(170882)
updateCurrDst(170937)
Heartbeat CPU 0 instructions: 101000001 cycles: 103369463 heartbeat IPC: 0.325937 cumulative IPC: 0.327469 (Simulation time: 0 hr 13 min 6 sec) 
updateCurrDst(171130)
updateCurrDst(171148)
updateCurrDst(171344)
updateCurrDst(171367)
updateCurrDst(171606)
updateCurrDst(171758)
updateCurrDst(171874)
updateCurrDst(171952)
updateCurrDst(171961)
updateCurrDst(172141)
updateCurrDst(172163)
updateCurrDst(172196)
updateCurrDst(172263)
updateCurrDst(172333)
updateCurrDst(172371)
updateCurrDst(172504)
updateCurrDst(172541)
Heartbeat CPU 0 instructions: 102000001 cycles: 106442691 heartbeat IPC: 0.325391 cumulative IPC: 0.327392 (Simulation time: 0 hr 13 min 13 sec) 
updateCurrDst(172726)
updateCurrDst(172853)
updateCurrDst(173032)
updateCurrDst(173135)
updateCurrDst(173142)
updateCurrDst(173257)
updateCurrDst(173322)
updateCurrDst(173516)
updateCurrDst(173790)
updateCurrDst(173835)
updateCurrDst(173848)
updateCurrDst(173953)
updateCurrDst(174040)
updateCurrDst(174095)
updateCurrDst(174132)
updateCurrDst(174166)
Heartbeat CPU 0 instructions: 103000002 cycles: 109469840 heartbeat IPC: 0.330344 cumulative IPC: 0.327496 (Simulation time: 0 hr 13 min 22 sec) 
updateCurrDst(174620)
updateCurrDst(174660)
updateCurrDst(174887)
updateCurrDst(175141)
updateCurrDst(175259)
updateCurrDst(175382)
updateCurrDst(175413)
updateCurrDst(175503)
updateCurrDst(175513)
updateCurrDst(175543)
updateCurrDst(175629)
updateCurrDst(175659)
updateCurrDst(175797)
updateCurrDst(175884)
updateCurrDst(175907)
updateCurrDst(175959)
Heartbeat CPU 0 instructions: 104000000 cycles: 112528242 heartbeat IPC: 0.326967 cumulative IPC: 0.327478 (Simulation time: 0 hr 13 min 30 sec) 
updateCurrDst(176130)
updateCurrDst(176196)
updateCurrDst(176302)
updateCurrDst(176307)
updateCurrDst(176534)
updateCurrDst(176790)
updateCurrDst(176847)
updateCurrDst(177059)
updateCurrDst(177147)
updateCurrDst(177183)
updateCurrDst(177214)
updateCurrDst(177460)
updateCurrDst(177511)
updateCurrDst(177674)
updateCurrDst(177708)
Heartbeat CPU 0 instructions: 105000001 cycles: 115593291 heartbeat IPC: 0.326259 cumulative IPC: 0.327437 (Simulation time: 0 hr 13 min 39 sec) 
updateCurrDst(177746)
updateCurrDst(177942)
updateCurrDst(178177)
updateCurrDst(178270)
updateCurrDst(178524)
updateCurrDst(178542)
updateCurrDst(178561)
updateCurrDst(178619)
updateCurrDst(178678)
updateCurrDst(178717)
updateCurrDst(178891)
updateCurrDst(178989)
updateCurrDst(179099)
updateCurrDst(179153)
updateCurrDst(179249)
updateCurrDst(179260)
Heartbeat CPU 0 instructions: 106000000 cycles: 118632153 heartbeat IPC: 0.32907 cumulative IPC: 0.32749 (Simulation time: 0 hr 13 min 47 sec) 
updateCurrDst(179533)
updateCurrDst(179550)
updateCurrDst(179565)
updateCurrDst(179568)
updateCurrDst(179961)
updateCurrDst(179974)
updateCurrDst(180017)
updateCurrDst(180029)
updateCurrDst(180052)
updateCurrDst(180104)
updateCurrDst(180155)
updateCurrDst(180166)
updateCurrDst(180270)
updateCurrDst(180450)
updateCurrDst(180501)
updateCurrDst(180590)
updateCurrDst(180630)
updateCurrDst(180636)
updateCurrDst(180647)
updateCurrDst(180698)
updateCurrDst(180764)
updateCurrDst(180841)
updateCurrDst(180985)
updateCurrDst(181295)
updateCurrDst(181382)
updateCurrDst(181429)
Heartbeat CPU 0 instructions: 107000000 cycles: 121656945 heartbeat IPC: 0.330601 cumulative IPC: 0.327586 (Simulation time: 0 hr 13 min 55 sec) 
updateCurrDst(181449)
updateCurrDst(181516)
updateCurrDst(181538)
updateCurrDst(181566)
updateCurrDst(181924)
updateCurrDst(182024)
updateCurrDst(182453)
updateCurrDst(182474)
updateCurrDst(182668)
updateCurrDst(182717)
updateCurrDst(182823)
updateCurrDst(182845)
updateCurrDst(182852)
updateCurrDst(183055)
updateCurrDst(183062)
Heartbeat CPU 0 instructions: 108000001 cycles: 124694810 heartbeat IPC: 0.329179 cumulative IPC: 0.327634 (Simulation time: 0 hr 14 min 5 sec) 
updateCurrDst(183319)
updateCurrDst(183692)
updateCurrDst(183695)
updateCurrDst(183728)
updateCurrDst(183889)
updateCurrDst(183900)
updateCurrDst(184027)
updateCurrDst(184167)
updateCurrDst(184201)
updateCurrDst(184498)
updateCurrDst(184539)
updateCurrDst(184551)
updateCurrDst(184670)
updateCurrDst(184793)
updateCurrDst(184837)
updateCurrDst(184895)
updateCurrDst(185009)
updateCurrDst(185093)
updateCurrDst(185124)
Heartbeat CPU 0 instructions: 109000001 cycles: 127708931 heartbeat IPC: 0.331772 cumulative IPC: 0.327754 (Simulation time: 0 hr 14 min 14 sec) 
updateCurrDst(185253)
updateCurrDst(185559)
updateCurrDst(185594)
updateCurrDst(185673)
updateCurrDst(185751)
updateCurrDst(185778)
updateCurrDst(185810)
updateCurrDst(185946)
updateCurrDst(186061)
updateCurrDst(186250)
updateCurrDst(186350)
updateCurrDst(186371)
updateCurrDst(186686)
updateCurrDst(186795)
updateCurrDst(186954)
updateCurrDst(186994)
Heartbeat CPU 0 instructions: 110000000 cycles: 130762068 heartbeat IPC: 0.327532 cumulative IPC: 0.327748 (Simulation time: 0 hr 14 min 23 sec) 
updateCurrDst(187231)
updateCurrDst(187265)
updateCurrDst(187348)
updateCurrDst(187606)
updateCurrDst(187759)
updateCurrDst(187888)
updateCurrDst(187971)
updateCurrDst(188092)
updateCurrDst(188289)
updateCurrDst(188515)
updateCurrDst(188562)
updateCurrDst(188711)
Heartbeat CPU 0 instructions: 111000002 cycles: 133814054 heartbeat IPC: 0.327656 cumulative IPC: 0.327745 (Simulation time: 0 hr 14 min 30 sec) 
updateCurrDst(188952)
updateCurrDst(188955)
updateCurrDst(189090)
updateCurrDst(189091)
updateCurrDst(189123)
updateCurrDst(189140)
updateCurrDst(189228)
updateCurrDst(189229)
updateCurrDst(189262)
updateCurrDst(189521)
updateCurrDst(189756)
updateCurrDst(189892)
updateCurrDst(189900)
updateCurrDst(190125)
updateCurrDst(190138)
updateCurrDst(190183)
updateCurrDst(190194)
updateCurrDst(190278)
updateCurrDst(190296)
updateCurrDst(190342)
updateCurrDst(190365)
Heartbeat CPU 0 instructions: 112000000 cycles: 136870429 heartbeat IPC: 0.327184 cumulative IPC: 0.32773 (Simulation time: 0 hr 14 min 38 sec) 
updateCurrDst(190442)
updateCurrDst(190520)
updateCurrDst(190702)
updateCurrDst(190825)
updateCurrDst(190873)
updateCurrDst(190996)
updateCurrDst(191036)
updateCurrDst(191140)
updateCurrDst(191147)
updateCurrDst(191274)
updateCurrDst(191451)
updateCurrDst(191529)
updateCurrDst(191596)
updateCurrDst(191862)
updateCurrDst(191876)
updateCurrDst(191879)
updateCurrDst(191928)
updateCurrDst(191983)
updateCurrDst(192061)
updateCurrDst(192145)
Heartbeat CPU 0 instructions: 113000000 cycles: 139940418 heartbeat IPC: 0.325734 cumulative IPC: 0.327677 (Simulation time: 0 hr 14 min 47 sec) 
updateCurrDst(192505)
updateCurrDst(192544)
updateCurrDst(192602)
updateCurrDst(192833)
updateCurrDst(192882)
updateCurrDst(192964)
updateCurrDst(192967)
updateCurrDst(193265)
updateCurrDst(193270)
updateCurrDst(193373)
updateCurrDst(193449)
updateCurrDst(193478)
updateCurrDst(193488)
updateCurrDst(193596)
updateCurrDst(193609)
updateCurrDst(193613)
updateCurrDst(193809)
Heartbeat CPU 0 instructions: 114000002 cycles: 142998058 heartbeat IPC: 0.32705 cumulative IPC: 0.327661 (Simulation time: 0 hr 14 min 56 sec) 
updateCurrDst(194179)
updateCurrDst(194269)
updateCurrDst(194397)
updateCurrDst(194445)
updateCurrDst(194493)
updateCurrDst(194647)
updateCurrDst(194655)
updateCurrDst(194725)
updateCurrDst(194923)
updateCurrDst(194952)
updateCurrDst(195051)
updateCurrDst(195180)
updateCurrDst(195198)
updateCurrDst(195294)
updateCurrDst(195296)
updateCurrDst(195425)
updateCurrDst(195511)
updateCurrDst(195538)
updateCurrDst(195644)
updateCurrDst(195795)
updateCurrDst(195921)
updateCurrDst(196024)
updateCurrDst(196054)
Heartbeat CPU 0 instructions: 115000002 cycles: 146067840 heartbeat IPC: 0.325756 cumulative IPC: 0.327613 (Simulation time: 0 hr 15 min 2 sec) 
updateCurrDst(196073)
updateCurrDst(196285)
updateCurrDst(196296)
updateCurrDst(196316)
updateCurrDst(196474)
updateCurrDst(196689)
updateCurrDst(196722)
updateCurrDst(196849)
updateCurrDst(196944)
updateCurrDst(197039)
updateCurrDst(197107)
updateCurrDst(197317)
updateCurrDst(197611)
updateCurrDst(197670)
updateCurrDst(197867)
updateCurrDst(197873)
updateCurrDst(198010)
Heartbeat CPU 0 instructions: 116000001 cycles: 149095130 heartbeat IPC: 0.330328 cumulative IPC: 0.327679 (Simulation time: 0 hr 15 min 10 sec) 
updateCurrDst(198146)
updateCurrDst(198337)
updateCurrDst(198405)
updateCurrDst(198587)
updateCurrDst(198670)
updateCurrDst(198673)
updateCurrDst(198697)
updateCurrDst(198711)
updateCurrDst(198797)
updateCurrDst(198918)
updateCurrDst(199183)
updateCurrDst(199530)
updateCurrDst(199551)
updateCurrDst(199671)
updateCurrDst(199694)
updateCurrDst(199701)
Heartbeat CPU 0 instructions: 117000001 cycles: 152136171 heartbeat IPC: 0.328835 cumulative IPC: 0.327706 (Simulation time: 0 hr 15 min 18 sec) 
updateCurrDst(200053)
updateCurrDst(200095)
updateCurrDst(200101)
updateCurrDst(200439)
updateCurrDst(200445)
updateCurrDst(200458)
updateCurrDst(200481)
updateCurrDst(200641)
updateCurrDst(201331)
updateCurrDst(201412)
updateCurrDst(201428)
updateCurrDst(201439)
updateCurrDst(201512)
updateCurrDst(201549)
Heartbeat CPU 0 instructions: 118000000 cycles: 155174687 heartbeat IPC: 0.329108 cumulative IPC: 0.327739 (Simulation time: 0 hr 15 min 26 sec) 
updateCurrDst(201681)
updateCurrDst(201856)
updateCurrDst(201922)
updateCurrDst(202145)
updateCurrDst(202273)
updateCurrDst(202473)
updateCurrDst(202639)
updateCurrDst(202647)
updateCurrDst(202660)
updateCurrDst(202700)
updateCurrDst(202725)
updateCurrDst(202748)
updateCurrDst(202998)
updateCurrDst(203068)
updateCurrDst(203197)
updateCurrDst(203208)
updateCurrDst(203342)
updateCurrDst(203348)
updateCurrDst(203419)
Heartbeat CPU 0 instructions: 119000001 cycles: 158216469 heartbeat IPC: 0.328755 cumulative IPC: 0.327762 (Simulation time: 0 hr 15 min 33 sec) 
updateCurrDst(203449)
updateCurrDst(203456)
updateCurrDst(203612)
updateCurrDst(203870)
updateCurrDst(204033)
updateCurrDst(204295)
updateCurrDst(204338)
updateCurrDst(204359)
updateCurrDst(204412)
updateCurrDst(204489)
updateCurrDst(204604)
updateCurrDst(204623)
updateCurrDst(204741)
Heartbeat CPU 0 instructions: 120000000 cycles: 161275107 heartbeat IPC: 0.326943 cumulative IPC: 0.327744 (Simulation time: 0 hr 15 min 41 sec) 
updateCurrDst(205047)
updateCurrDst(205074)
updateCurrDst(205182)
updateCurrDst(205276)
updateCurrDst(205306)
updateCurrDst(205439)
updateCurrDst(205683)
updateCurrDst(205809)
updateCurrDst(205816)
updateCurrDst(205836)
updateCurrDst(206059)
updateCurrDst(206105)
updateCurrDst(206134)
updateCurrDst(206154)
updateCurrDst(206163)
updateCurrDst(206231)
updateCurrDst(206253)
updateCurrDst(206288)
updateCurrDst(206560)
updateCurrDst(206605)
updateCurrDst(206649)
updateCurrDst(206745)
updateCurrDst(206786)
updateCurrDst(206859)
updateCurrDst(206961)
Heartbeat CPU 0 instructions: 121000000 cycles: 164290936 heartbeat IPC: 0.331584 cumulative IPC: 0.327826 (Simulation time: 0 hr 15 min 49 sec) 
updateCurrDst(207043)
updateCurrDst(207081)
updateCurrDst(207209)
updateCurrDst(207434)
updateCurrDst(207653)
updateCurrDst(208008)
updateCurrDst(208025)
updateCurrDst(208065)
updateCurrDst(208156)
updateCurrDst(208252)
updateCurrDst(208279)
updateCurrDst(208283)
updateCurrDst(208469)
updateCurrDst(208555)
updateCurrDst(208581)
updateCurrDst(208665)
updateCurrDst(208838)
Heartbeat CPU 0 instructions: 122000002 cycles: 167320313 heartbeat IPC: 0.330102 cumulative IPC: 0.327874 (Simulation time: 0 hr 15 min 59 sec) 
updateCurrDst(208918)
updateCurrDst(209249)
updateCurrDst(209314)
updateCurrDst(209340)
updateCurrDst(209375)
updateCurrDst(209542)
updateCurrDst(209577)
updateCurrDst(209739)
updateCurrDst(209778)
updateCurrDst(209810)
updateCurrDst(209825)
updateCurrDst(210069)
updateCurrDst(210217)
updateCurrDst(210330)
updateCurrDst(210334)
updateCurrDst(210456)
updateCurrDst(210538)
updateCurrDst(210641)
updateCurrDst(210662)
updateCurrDst(210675)
updateCurrDst(210759)
updateCurrDst(210762)
updateCurrDst(210785)
updateCurrDst(210816)
updateCurrDst(210832)
Heartbeat CPU 0 instructions: 123000000 cycles: 170339360 heartbeat IPC: 0.33123 cumulative IPC: 0.327943 (Simulation time: 0 hr 16 min 8 sec) 
updateCurrDst(210954)
updateCurrDst(211066)
updateCurrDst(211086)
updateCurrDst(211606)
updateCurrDst(211627)
updateCurrDst(211725)
updateCurrDst(211735)
updateCurrDst(211816)
updateCurrDst(211844)
updateCurrDst(212041)
updateCurrDst(212108)
updateCurrDst(212194)
updateCurrDst(212256)
updateCurrDst(212288)
updateCurrDst(212418)
updateCurrDst(212601)
updateCurrDst(212863)
Heartbeat CPU 0 instructions: 124000002 cycles: 173357042 heartbeat IPC: 0.331381 cumulative IPC: 0.328013 (Simulation time: 0 hr 16 min 17 sec) 
updateCurrDst(213145)
updateCurrDst(213250)
updateCurrDst(213430)
updateCurrDst(213570)
updateCurrDst(213815)
updateCurrDst(213864)
updateCurrDst(213868)
updateCurrDst(213916)
updateCurrDst(214137)
updateCurrDst(214216)
updateCurrDst(214230)
updateCurrDst(214234)
updateCurrDst(214363)
updateCurrDst(214432)
updateCurrDst(214503)
updateCurrDst(214598)
updateCurrDst(214708)
updateCurrDst(214879)
updateCurrDst(214923)
updateCurrDst(214939)
updateCurrDst(215044)
updateCurrDst(215081)
Heartbeat CPU 0 instructions: 125000002 cycles: 176361646 heartbeat IPC: 0.332823 cumulative IPC: 0.328108 (Simulation time: 0 hr 16 min 27 sec) 
updateCurrDst(215230)
updateCurrDst(215301)
updateCurrDst(215774)
updateCurrDst(215897)
updateCurrDst(216038)
updateCurrDst(216207)
updateCurrDst(216492)
updateCurrDst(216693)
Heartbeat CPU 0 instructions: 126000000 cycles: 179409858 heartbeat IPC: 0.328061 cumulative IPC: 0.328107 (Simulation time: 0 hr 16 min 36 sec) 
updateCurrDst(216825)
updateCurrDst(216829)
updateCurrDst(216850)
updateCurrDst(216891)
updateCurrDst(216907)
updateCurrDst(216933)
updateCurrDst(216949)
updateCurrDst(217119)
updateCurrDst(217209)
updateCurrDst(217217)
updateCurrDst(217226)
updateCurrDst(217234)
updateCurrDst(217304)
updateCurrDst(217671)
updateCurrDst(217678)
updateCurrDst(217686)
updateCurrDst(217693)
updateCurrDst(217727)
updateCurrDst(217868)
updateCurrDst(217873)
updateCurrDst(217955)
updateCurrDst(218036)
updateCurrDst(218054)
updateCurrDst(218175)
updateCurrDst(218214)
Heartbeat CPU 0 instructions: 127000001 cycles: 182458594 heartbeat IPC: 0.328005 cumulative IPC: 0.328105 (Simulation time: 0 hr 16 min 46 sec) 
updateCurrDst(218374)
updateCurrDst(218577)
updateCurrDst(218604)
updateCurrDst(218641)
updateCurrDst(218731)
updateCurrDst(218756)
updateCurrDst(218803)
updateCurrDst(219009)
updateCurrDst(219033)
updateCurrDst(219059)
updateCurrDst(219124)
updateCurrDst(219267)
updateCurrDst(219321)
updateCurrDst(219327)
updateCurrDst(219411)
updateCurrDst(219488)
Heartbeat CPU 0 instructions: 128000000 cycles: 185523044 heartbeat IPC: 0.326322 cumulative IPC: 0.328071 (Simulation time: 0 hr 16 min 53 sec) 
updateCurrDst(219962)
updateCurrDst(220011)
updateCurrDst(220026)
updateCurrDst(220054)
updateCurrDst(220177)
updateCurrDst(220205)
updateCurrDst(220209)
updateCurrDst(220334)
updateCurrDst(220357)
updateCurrDst(220705)
updateCurrDst(220791)
updateCurrDst(220947)
updateCurrDst(220948)
updateCurrDst(221168)
updateCurrDst(221186)
updateCurrDst(221206)
Heartbeat CPU 0 instructions: 129000000 cycles: 188568460 heartbeat IPC: 0.328362 cumulative IPC: 0.328076 (Simulation time: 0 hr 17 min 1 sec) 
updateCurrDst(221296)
updateCurrDst(221367)
updateCurrDst(221846)
updateCurrDst(221858)
updateCurrDst(221998)
updateCurrDst(222029)
updateCurrDst(222280)
updateCurrDst(222342)
updateCurrDst(222448)
updateCurrDst(222483)
updateCurrDst(222550)
updateCurrDst(222597)
updateCurrDst(222681)
updateCurrDst(222706)
updateCurrDst(222716)
Heartbeat CPU 0 instructions: 130000001 cycles: 191623054 heartbeat IPC: 0.327376 cumulative IPC: 0.328064 (Simulation time: 0 hr 17 min 10 sec) 
updateCurrDst(222914)
updateCurrDst(223053)
updateCurrDst(223188)
updateCurrDst(223362)
updateCurrDst(223368)
updateCurrDst(223378)
updateCurrDst(223382)
updateCurrDst(223497)
updateCurrDst(223516)
updateCurrDst(223693)
updateCurrDst(223739)
updateCurrDst(223778)
updateCurrDst(224005)
updateCurrDst(224016)
updateCurrDst(224164)
updateCurrDst(224305)
updateCurrDst(224435)
updateCurrDst(224608)
Heartbeat CPU 0 instructions: 131000000 cycles: 194674230 heartbeat IPC: 0.327742 cumulative IPC: 0.328058 (Simulation time: 0 hr 17 min 18 sec) 
updateCurrDst(224657)
updateCurrDst(224754)
updateCurrDst(224829)
updateCurrDst(224879)
updateCurrDst(224903)
updateCurrDst(224943)
updateCurrDst(224993)
updateCurrDst(225129)
updateCurrDst(225221)
updateCurrDst(225304)
updateCurrDst(225317)
updateCurrDst(225405)
updateCurrDst(225426)
updateCurrDst(225512)
updateCurrDst(225517)
updateCurrDst(225724)
updateCurrDst(225748)
updateCurrDst(225928)
updateCurrDst(226013)
updateCurrDst(226322)
updateCurrDst(226371)
Heartbeat CPU 0 instructions: 132000000 cycles: 197725469 heartbeat IPC: 0.327736 cumulative IPC: 0.328052 (Simulation time: 0 hr 17 min 25 sec) 
updateCurrDst(226583)
updateCurrDst(226621)
updateCurrDst(226779)
updateCurrDst(226840)
updateCurrDst(226918)
updateCurrDst(226929)
updateCurrDst(227070)
updateCurrDst(227287)
updateCurrDst(227559)
updateCurrDst(227606)
updateCurrDst(227628)
updateCurrDst(227701)
updateCurrDst(227798)
updateCurrDst(227842)
updateCurrDst(228085)
updateCurrDst(228121)
updateCurrDst(228133)
updateCurrDst(228215)
updateCurrDst(228250)
updateCurrDst(228261)
Heartbeat CPU 0 instructions: 133000000 cycles: 200766452 heartbeat IPC: 0.328841 cumulative IPC: 0.328066 (Simulation time: 0 hr 17 min 36 sec) 
updateCurrDst(228694)
updateCurrDst(228745)
updateCurrDst(228762)
updateCurrDst(228770)
updateCurrDst(229062)
updateCurrDst(229084)
updateCurrDst(229087)
updateCurrDst(229124)
updateCurrDst(229301)
updateCurrDst(229314)
updateCurrDst(229325)
updateCurrDst(229723)
updateCurrDst(229954)
Heartbeat CPU 0 instructions: 134000001 cycles: 203822465 heartbeat IPC: 0.327224 cumulative IPC: 0.328052 (Simulation time: 0 hr 17 min 44 sec) 
updateCurrDst(230089)
updateCurrDst(230271)
updateCurrDst(230395)
updateCurrDst(230469)
updateCurrDst(230684)
updateCurrDst(230704)
updateCurrDst(230789)
updateCurrDst(230892)
updateCurrDst(231047)
updateCurrDst(231087)
updateCurrDst(231268)
Heartbeat CPU 0 instructions: 135000002 cycles: 206886802 heartbeat IPC: 0.326335 cumulative IPC: 0.328023 (Simulation time: 0 hr 17 min 55 sec) 
updateCurrDst(231870)
updateCurrDst(231944)
updateCurrDst(232129)
updateCurrDst(232153)
updateCurrDst(232159)
updateCurrDst(232172)
updateCurrDst(232243)
updateCurrDst(232245)
updateCurrDst(232272)
updateCurrDst(232459)
updateCurrDst(232529)
updateCurrDst(232536)
updateCurrDst(232546)
updateCurrDst(232871)
updateCurrDst(232878)
updateCurrDst(232933)
updateCurrDst(232973)
updateCurrDst(232981)
updateCurrDst(233032)
updateCurrDst(233079)
updateCurrDst(233176)
updateCurrDst(233222)
updateCurrDst(233427)
updateCurrDst(233443)
updateCurrDst(233463)
Heartbeat CPU 0 instructions: 136000001 cycles: 209917919 heartbeat IPC: 0.329911 cumulative IPC: 0.328054 (Simulation time: 0 hr 18 min 4 sec) 
updateCurrDst(233494)
updateCurrDst(233504)
updateCurrDst(233515)
updateCurrDst(233518)
updateCurrDst(233601)
updateCurrDst(233645)
updateCurrDst(233792)
updateCurrDst(234063)
updateCurrDst(234156)
updateCurrDst(234188)
updateCurrDst(234204)
updateCurrDst(234296)
updateCurrDst(234316)
updateCurrDst(234324)
updateCurrDst(234335)
updateCurrDst(234412)
updateCurrDst(234431)
updateCurrDst(234546)
updateCurrDst(234646)
updateCurrDst(234803)
updateCurrDst(234812)
updateCurrDst(234851)
updateCurrDst(234894)
updateCurrDst(235005)
Heartbeat CPU 0 instructions: 137000001 cycles: 212969668 heartbeat IPC: 0.327681 cumulative IPC: 0.328048 (Simulation time: 0 hr 18 min 12 sec) 
updateCurrDst(235350)
updateCurrDst(235385)
updateCurrDst(235408)
updateCurrDst(235474)
updateCurrDst(235504)
updateCurrDst(235613)
updateCurrDst(235629)
updateCurrDst(235642)
updateCurrDst(235727)
updateCurrDst(235836)
updateCurrDst(235876)
updateCurrDst(235884)
updateCurrDst(235898)
updateCurrDst(235916)
updateCurrDst(235920)
updateCurrDst(235971)
updateCurrDst(236055)
updateCurrDst(236201)
updateCurrDst(236420)
updateCurrDst(236432)
updateCurrDst(236514)
updateCurrDst(236516)
updateCurrDst(236563)
updateCurrDst(236704)
updateCurrDst(236710)
Heartbeat CPU 0 instructions: 138000002 cycles: 216038499 heartbeat IPC: 0.325857 cumulative IPC: 0.328013 (Simulation time: 0 hr 18 min 20 sec) 
updateCurrDst(236960)
updateCurrDst(236966)
updateCurrDst(237014)
updateCurrDst(237034)
updateCurrDst(237210)
updateCurrDst(237313)
updateCurrDst(237325)
updateCurrDst(237588)
updateCurrDst(237648)
updateCurrDst(237805)
Heartbeat CPU 0 instructions: 139000000 cycles: 219128709 heartbeat IPC: 0.323602 cumulative IPC: 0.327943 (Simulation time: 0 hr 18 min 28 sec) 
updateCurrDst(237974)
updateCurrDst(238025)
updateCurrDst(238051)
updateCurrDst(238065)
updateCurrDst(238281)
updateCurrDst(238345)
updateCurrDst(238452)
updateCurrDst(238460)
updateCurrDst(238627)
updateCurrDst(238768)
updateCurrDst(238884)
updateCurrDst(239013)
updateCurrDst(239042)
updateCurrDst(239120)
updateCurrDst(239222)
updateCurrDst(239253)
updateCurrDst(239372)
updateCurrDst(239528)
updateCurrDst(239534)
updateCurrDst(239570)
updateCurrDst(239604)
updateCurrDst(239643)
updateCurrDst(239655)
Heartbeat CPU 0 instructions: 140000001 cycles: 222206681 heartbeat IPC: 0.32489 cumulative IPC: 0.327895 (Simulation time: 0 hr 18 min 37 sec) 
updateCurrDst(239810)
updateCurrDst(239889)
updateCurrDst(240029)
updateCurrDst(240107)
updateCurrDst(240285)
updateCurrDst(240370)
updateCurrDst(240398)
updateCurrDst(240443)
updateCurrDst(240485)
updateCurrDst(240599)
updateCurrDst(240726)
updateCurrDst(240744)
updateCurrDst(240871)
updateCurrDst(240956)
updateCurrDst(241019)
updateCurrDst(241060)
updateCurrDst(241063)
updateCurrDst(241089)
updateCurrDst(241175)
Heartbeat CPU 0 instructions: 141000000 cycles: 225289052 heartbeat IPC: 0.324425 cumulative IPC: 0.327842 (Simulation time: 0 hr 18 min 45 sec) 
updateCurrDst(241520)
updateCurrDst(241643)
updateCurrDst(241763)
updateCurrDst(241840)
updateCurrDst(241882)
updateCurrDst(241930)
updateCurrDst(241985)
updateCurrDst(242421)
updateCurrDst(242434)
updateCurrDst(242468)
updateCurrDst(242515)
updateCurrDst(242859)
updateCurrDst(242953)
updateCurrDst(243042)
updateCurrDst(243223)
updateCurrDst(243251)
updateCurrDst(243334)
updateCurrDst(243391)
Heartbeat CPU 0 instructions: 142000001 cycles: 228352582 heartbeat IPC: 0.326421 cumulative IPC: 0.327821 (Simulation time: 0 hr 18 min 56 sec) 
updateCurrDst(243453)
updateCurrDst(243548)
updateCurrDst(243708)
updateCurrDst(243801)
updateCurrDst(243994)
updateCurrDst(244020)
updateCurrDst(244129)
updateCurrDst(244287)
updateCurrDst(244288)
updateCurrDst(244443)
updateCurrDst(244658)
updateCurrDst(244684)
updateCurrDst(244708)
updateCurrDst(244710)
updateCurrDst(244820)
updateCurrDst(244878)
updateCurrDst(244928)
updateCurrDst(245053)
updateCurrDst(245055)
updateCurrDst(245058)
updateCurrDst(245095)
updateCurrDst(245180)
updateCurrDst(245200)
updateCurrDst(245218)
updateCurrDst(245231)
Heartbeat CPU 0 instructions: 143000000 cycles: 231421740 heartbeat IPC: 0.325822 cumulative IPC: 0.327791 (Simulation time: 0 hr 19 min 3 sec) 
updateCurrDst(245375)
updateCurrDst(246103)
updateCurrDst(246393)
updateCurrDst(246702)
updateCurrDst(246907)
updateCurrDst(246977)
updateCurrDst(247088)
updateCurrDst(247113)
Heartbeat CPU 0 instructions: 144000001 cycles: 234488589 heartbeat IPC: 0.326068 cumulative IPC: 0.327766 (Simulation time: 0 hr 19 min 12 sec) 
updateCurrDst(247292)
updateCurrDst(247475)
updateCurrDst(247517)
updateCurrDst(247638)
updateCurrDst(247782)
updateCurrDst(247794)
updateCurrDst(247840)
updateCurrDst(247976)
updateCurrDst(248004)
updateCurrDst(248056)
updateCurrDst(248062)
updateCurrDst(248260)
updateCurrDst(248327)
updateCurrDst(248334)
updateCurrDst(248388)
updateCurrDst(248658)
updateCurrDst(248969)
updateCurrDst(249007)
updateCurrDst(249022)
updateCurrDst(249037)
Heartbeat CPU 0 instructions: 145000001 cycles: 237558559 heartbeat IPC: 0.325736 cumulative IPC: 0.327737 (Simulation time: 0 hr 19 min 20 sec) 
updateCurrDst(249300)
updateCurrDst(249492)
updateCurrDst(249764)
updateCurrDst(249874)
updateCurrDst(250060)
updateCurrDst(250454)
updateCurrDst(250540)
updateCurrDst(250604)
updateCurrDst(250735)
updateCurrDst(250742)
updateCurrDst(250892)
Heartbeat CPU 0 instructions: 146000000 cycles: 240625467 heartbeat IPC: 0.326061 cumulative IPC: 0.327713 (Simulation time: 0 hr 19 min 27 sec) 
updateCurrDst(251016)
updateCurrDst(251044)
updateCurrDst(251110)
updateCurrDst(251337)
updateCurrDst(251435)
updateCurrDst(251451)
updateCurrDst(251827)
updateCurrDst(252005)
updateCurrDst(252027)
updateCurrDst(252080)
updateCurrDst(252130)
updateCurrDst(252277)
updateCurrDst(252304)
updateCurrDst(252330)
updateCurrDst(252422)
updateCurrDst(252598)
Heartbeat CPU 0 instructions: 147000000 cycles: 243700584 heartbeat IPC: 0.325191 cumulative IPC: 0.327678 (Simulation time: 0 hr 19 min 35 sec) 
updateCurrDst(252706)
updateCurrDst(252743)
updateCurrDst(252783)
updateCurrDst(252792)
updateCurrDst(252921)
updateCurrDst(252949)
updateCurrDst(252954)
updateCurrDst(252963)
updateCurrDst(252973)
updateCurrDst(253010)
updateCurrDst(253042)
updateCurrDst(253076)
updateCurrDst(253193)
updateCurrDst(253347)
updateCurrDst(253472)
updateCurrDst(253595)
updateCurrDst(253641)
updateCurrDst(254023)
updateCurrDst(254185)
updateCurrDst(254264)
updateCurrDst(254265)
Heartbeat CPU 0 instructions: 148000000 cycles: 246772990 heartbeat IPC: 0.325478 cumulative IPC: 0.327648 (Simulation time: 0 hr 19 min 44 sec) 
updateCurrDst(254798)
updateCurrDst(254799)
updateCurrDst(254862)
updateCurrDst(255114)
updateCurrDst(255151)
updateCurrDst(255213)
updateCurrDst(255228)
updateCurrDst(255287)
updateCurrDst(255430)
updateCurrDst(255458)
updateCurrDst(255848)
updateCurrDst(255940)
updateCurrDst(256020)
updateCurrDst(256076)
updateCurrDst(256168)
updateCurrDst(256304)
updateCurrDst(256346)
Heartbeat CPU 0 instructions: 149000000 cycles: 249843056 heartbeat IPC: 0.325726 cumulative IPC: 0.327622 (Simulation time: 0 hr 19 min 52 sec) 
updateCurrDst(256460)
updateCurrDst(256478)
updateCurrDst(256503)
updateCurrDst(256580)
updateCurrDst(256695)
updateCurrDst(256823)
updateCurrDst(256968)
updateCurrDst(257001)
updateCurrDst(257020)
updateCurrDst(257042)
updateCurrDst(257095)
updateCurrDst(257138)
updateCurrDst(257435)
updateCurrDst(257484)
updateCurrDst(257517)
updateCurrDst(257640)
updateCurrDst(257766)
updateCurrDst(257806)
updateCurrDst(257891)
updateCurrDst(257911)
updateCurrDst(257936)
updateCurrDst(258196)
updateCurrDst(258257)
updateCurrDst(258297)
updateCurrDst(258363)
*** Reached end of trace for Core: 0 Repeating trace: testcases/pull_g18_k4.xzafter: 150000000
Heartbeat CPU 0 instructions: 150000000 cycles: 252911482 heartbeat IPC: 0.3259 cumulative IPC: 0.327598 (Simulation time: 0 hr 19 min 59 sec) 
Finished CPU 0 instructions: 75000001 cycles: 228938866 cumulative IPC: 0.327598 (Simulation time: 0 hr 20 min 0 sec) 

ChampSim completed all CPUs

Region of Interest Statistics

CPU 0 cumulative IPC: 0.327598 instructions: 75000001 cycles: 228938866

Total ROB STALLS:                   27876447
STLB MISS ROB STALLS:                   1392
L1D  LOAD MISS ROB STALLS:            971323  Translation MISS ROB STALLS:             0
L2C  LOAD MISS ROB STALLS:            392926  Translation MISS ROB STALLS:             0
LLC  LOAD MISS ROB STALLS:             82881  Translation MISS ROB STALLS:             0

ITLB TOTAL     ACCESS:          10083666  HIT:   10083666  MISS:          0  HIT %:        100  MISS %:          0   MPKI: 0
ITLB LOAD TRANSLATION ACCESS:   10083666  HIT:   10083666  MISS:          0  HIT %:        100  MISS %:          0   MPKI: 0
ITLB AVERAGE MISS LATENCY:          -nan cycles
ITLB RQ ACCESS:    10884194	FORWARD:           0	MERGED:       800528	TO_CACHE:   10083666

DTLB TOTAL     ACCESS:          22646798  HIT:   22009129  MISS:     637669  HIT %:    97.1843  MISS %:    2.81571   MPKI: 8.50225
DTLB LOAD TRANSLATION ACCESS:   22646798  HIT:   22009129  MISS:     637669  HIT %:    97.1843  MISS %:    2.81571   MPKI: 8.50225
DTLB AVERAGE MISS LATENCY:       9.52079 cycles
DTLB RQ ACCESS:    31892048	FORWARD:           0	MERGED:      9245250	TO_CACHE:   22646798

STLB TOTAL     ACCESS:            637669  HIT:     636277  MISS:       1392  HIT %:    99.7817  MISS %:   0.218295   MPKI: 0.01856
STLB LOAD TRANSLATION ACCESS:     637669  HIT:     636277  MISS:       1392  HIT %:    99.7817  MISS %:   0.218295   MPKI: 0.01856
STLB AVERAGE MISS LATENCY:       238.572 cycles
STLB RQ ACCESS:      637669	FORWARD:           0	MERGED:            0	TO_CACHE:     637669

PSCL5 TOTAL     ACCESS:              1392  HIT:       1392  MISS:          0  HIT %:        100  MISS %:          0   MPKI: 0
PSCL5 LOAD TRANSLATION ACCESS:       1392  HIT:       1392  MISS:          0  HIT %:        100  MISS %:          0   MPKI: 0

PSCL4 TOTAL     ACCESS:              1392  HIT:       1392  MISS:          0  HIT %:        100  MISS %:          0   MPKI: 0
PSCL4 LOAD TRANSLATION ACCESS:       1392  HIT:       1392  MISS:          0  HIT %:        100  MISS %:          0   MPKI: 0

PSCL3 TOTAL     ACCESS:              1392  HIT:       1392  MISS:          0  HIT %:        100  MISS %:          0   MPKI: 0
PSCL3 LOAD TRANSLATION ACCESS:       1392  HIT:       1392  MISS:          0  HIT %:        100  MISS %:          0   MPKI: 0

PSCL2 TOTAL     ACCESS:              1392  HIT:       1391  MISS:          1  HIT %:    99.9282  MISS %:  0.0718391   MPKI: 1.33333e-05
PSCL2 LOAD TRANSLATION ACCESS:       1392  HIT:       1391  MISS:          1  HIT %:    99.9282  MISS %:  0.0718391   MPKI: 1.33333e-05

L1D TOTAL     ACCESS:          31891297  HIT:   30919530  MISS:     971767  HIT %:    96.9529  MISS %:    3.04712   MPKI: 12.9569  USED:     184001  UNUSED:     787766
L1D LOAD      ACCESS:          14616870  HIT:   13645437  MISS:     971433  HIT %:     93.354  MISS %:    6.64597   MPKI: 12.9524  USED:     183667  UNUSED:     787766
L1D RFO       ACCESS:          17274427  HIT:   17274093  MISS:        334  HIT %:    99.9981  MISS %: 0.00193349   MPKI: 0.00445333
L1D PTL1 TRANSLATION ACCESS:          0  HIT:          0  MISS:          0  HIT %:       -nan  MISS %:       -nan   MPKI: 0
L1D PTL2 TRANSLATION ACCESS:          0  HIT:          0  MISS:          0  HIT %:       -nan  MISS %:       -nan   MPKI: 0
L1D PTL3 TRANSLATION ACCESS:          0  HIT:          0  MISS:          0  HIT %:       -nan  MISS %:       -nan   MPKI: 0
L1D PTL4 TRANSLATION ACCESS:          0  HIT:          0  MISS:          0  HIT %:       -nan  MISS %:       -nan   MPKI: 0
L1D PTL5 TRANSLATION ACCESS:          0  HIT:          0  MISS:          0  HIT %:       -nan  MISS %:       -nan   MPKI: 0
L1D TOTAL EVICTIONS:             971767  TRANSLATION EVICTIONS:          0  TRANSLATION EVICTING TRANSALTION:          0  TRANSLATION EVICTING LOAD:          0  LOAD EVICTING TRANSALTION:          0  LOAD EVICTING LOAD:      971099
L1D AVERAGE MISS LATENCY:        34.892 cycles  AVERAGE LOAD MISS LATENCY:       34.8984 cycles  AVERAGE LOAD TRANSLATION MISS LATENCY:          -nan cycles
L1D RQ ACCESS:    18885550	FORWARD:           0	MERGED:      2495647	TO_CACHE:   14616873
L1D WQ ACCESS:    17290345	FORWARD:     1773030	MERGED:        15170	TO_CACHE:   17275175

L1I TOTAL     ACCESS:          10884194  HIT:   10884194  MISS:          0  HIT %:        100  MISS %:          0   MPKI: 0
L1I LOAD      ACCESS:          10884194  HIT:   10884194  MISS:          0  HIT %:        100  MISS %:          0   MPKI: 0
L1I AVERAGE MISS LATENCY:          -nan cycles
L1I RQ ACCESS:    17323017	FORWARD:           0	MERGED:      6438823	TO_CACHE:   10884194

L2C TOTAL     ACCESS:            980437  HIT:     587382  MISS:     393055  HIT %:    59.9102  MISS %:    40.0898   MPKI: 5.24073  USED:     136642  UNUSED:     256413
L2C LOAD      ACCESS:            971433  HIT:     578466  MISS:     392967  HIT %:    59.5477  MISS %:    40.4523   MPKI: 5.23956  USED:     136558  UNUSED:     256408
L2C RFO       ACCESS:               334  HIT:        322  MISS:         12  HIT %:    96.4072  MISS %:    3.59281   MPKI: 0.00016
L2C WRITEBACK ACCESS:              8670  HIT:       8594  MISS:         76  HIT %:    99.1234  MISS %:   0.876586   MPKI: 0.00101333
L2C PTL1 TRANSLATION ACCESS:          0  HIT:          0  MISS:          0  HIT %:       -nan  MISS %:       -nan   MPKI: 0
L2C PTL2 TRANSLATION ACCESS:          0  HIT:          0  MISS:          0  HIT %:       -nan  MISS %:       -nan   MPKI: 0
L2C PTL3 TRANSLATION ACCESS:          0  HIT:          0  MISS:          0  HIT %:       -nan  MISS %:       -nan   MPKI: 0
L2C PTL4 TRANSLATION ACCESS:          0  HIT:          0  MISS:          0  HIT %:       -nan  MISS %:       -nan   MPKI: 0
L2C PTL5 TRANSLATION ACCESS:          0  HIT:          0  MISS:          0  HIT %:       -nan  MISS %:       -nan   MPKI: 0
L2C TOTAL EVICTIONS:             393055  TRANSLATION EVICTIONS:          0  TRANSLATION EVICTING TRANSALTION:          0  TRANSLATION EVICTING LOAD:          0  LOAD EVICTING TRANSALTION:          0  LOAD EVICTING LOAD:      392878
L2C AVERAGE MISS LATENCY:       49.1797 cycles  AVERAGE LOAD MISS LATENCY:       49.1898 cycles  AVERAGE LOAD TRANSLATION MISS LATENCY:          -nan cycles
L2C RQ ACCESS:      971768	FORWARD:           0	MERGED:            0	TO_CACHE:     971768
L2C WQ ACCESS:        8670	FORWARD:           0	MERGED:            0	TO_CACHE:       8670

LLC TOTAL     ACCESS:            401393  HIT:     317300  MISS:      84093  HIT %:    79.0497  MISS %:    20.9503   MPKI: 1.12124  USED:          0  UNUSED:          0
LLC LOAD      ACCESS:            392967  HIT:     310086  MISS:      82881  HIT %:    78.9089  MISS %:    21.0911   MPKI: 1.10508  USED:          0  UNUSED:          0
LLC RFO       ACCESS:                12  HIT:         12  MISS:          0  HIT %:        100  MISS %:          0   MPKI: 0
LLC WRITEBACK ACCESS:              8414  HIT:       7202  MISS:       1212  HIT %:    85.5954  MISS %:    14.4046   MPKI: 0.01616
LLC PTL1 TRANSLATION ACCESS:          0  HIT:          0  MISS:          0  HIT %:       -nan  MISS %:       -nan   MPKI: 0
LLC PTL2 TRANSLATION ACCESS:          0  HIT:          0  MISS:          0  HIT %:       -nan  MISS %:       -nan   MPKI: 0
LLC PTL3 TRANSLATION ACCESS:          0  HIT:          0  MISS:          0  HIT %:       -nan  MISS %:       -nan   MPKI: 0
LLC PTL4 TRANSLATION ACCESS:          0  HIT:          0  MISS:          0  HIT %:       -nan  MISS %:       -nan   MPKI: 0
LLC PTL5 TRANSLATION ACCESS:          0  HIT:          0  MISS:          0  HIT %:       -nan  MISS %:       -nan   MPKI: 0
LLC TOTAL EVICTIONS:                  0  TRANSLATION EVICTIONS:          0  TRANSLATION EVICTING TRANSALTION:          0  TRANSLATION EVICTING LOAD:          0  LOAD EVICTING TRANSALTION:          0  LOAD EVICTING LOAD:           0
LLC AVERAGE MISS LATENCY:       89.6742 cycles  AVERAGE LOAD MISS LATENCY:       90.9855 cycles  AVERAGE LOAD TRANSLATION MISS LATENCY:          -nan cycles
LLC RQ ACCESS:      392980	FORWARD:           0	MERGED:            0	TO_CACHE:     392980
LLC WQ ACCESS:        8414	FORWARD:           0	MERGED:            0	TO_CACHE:       8414


RAW hits: 13068041
Loads Generated: 31953591
Loads sent to L1D: 18885550
Stores Generated: 17290344
Stores sent to L1D: 17290345
Major fault: 0 Minor fault: 3154
Allocated PAGES: 3154
IRREG DATA L1D ACCESS: 1980247
L2C ACCESSES: 1704564
L2C MISSES: 587169
Total LLC accesses: 783930
Total Irreg accesses: 587169

DRAM Statistics
 CHANNEL 0
 RQ ROW_BUFFER_HIT:      65500  ROW_BUFFER_MISS:      18773
 DBUS_CONGESTED:          0
 WQ ROW_BUFFER_HIT:          2  ROW_BUFFER_MISS:       2081  FULL:          0

 AVG_CONGESTED_CYCLE: -

CPU 0 Branch Prediction Accuracy: 98.6434% MPKI: 1.66853 Average ROB Occupancy at Mispredict: 14.426
Branch types
NOT_BRANCH: 65774769 87.6997%
BRANCH_DIRECT_JUMP: 0 0%
BRANCH_INDIRECT: 1159448 1.54593%
BRANCH_CONDITIONAL: 0 0%
BRANCH_DIRECT_CALL: 133421 0.177895%
BRANCH_INDIRECT_CALL: 3119425 4.15923%
BRANCH_RETURN: 3252848 4.33713%
BRANCH_OTHER: 1559712 2.07962%

DRAM PAGES: 1048576
Allocated PAGES: 3154
