
*** ChampSim Multicore Out-of-Order Simulator ***

Warmup Instructions: 16000000
Simulation Instructions: 16000000
Number of CPUs: 1
LLC sets: 2048
LLC ways: 16
Off-chip DRAM Size: 4096 MB Channels: 1 Width: 64-bit Data Rate: 6400 MT/s
CPU 0 runs tracer/pull_g16_k3.xz
.xz
BTB has LRU replacement policy
ITLB has LRU replacement policy
DTLB has LRU replacement policy
STLB has LRU replacement policy
L1I has LRU replacement policy
L1D has LRU replacement policy
L2C has LRU replacement policy
LLC has LRU replacement policy
Heartbeat CPU 0 instructions: 1000002 cycles: 350514 heartbeat IPC: 2.85296 cumulative IPC: 2.85296 (Simulation time: 0 hr 0 min 3 sec) 
PIN_registerGraphs(test_g16_k3.sg,1)
Graphh Number of Nodes: 65535
Heartbeat CPU 0 instructions: 2000001 cycles: 690802 heartbeat IPC: 2.93868 cumulative IPC: 2.89519 (Simulation time: 0 hr 0 min 6 sec) 
PIN_updateRegBaseBound( 94047396556944, 94047396819084)
updateCurrDst(11)
updateCurrDst(103)
updateCurrDst(141)
updateCurrDst(193)
updateCurrDst(210)
updateCurrDst(345)
updateCurrDst(616)
updateCurrDst(762)
updateCurrDst(924)
updateCurrDst(979)
updateCurrDst(985)
updateCurrDst(1023)
updateCurrDst(1024)
updateCurrDst(1038)
updateCurrDst(1042)
updateCurrDst(1059)
updateCurrDst(1198)
updateCurrDst(1216)
Heartbeat CPU 0 instructions: 3000001 cycles: 1016210 heartbeat IPC: 3.07307 cumulative IPC: 2.95215 (Simulation time: 0 hr 0 min 9 sec) 
updateCurrDst(1343)
updateCurrDst(1409)
updateCurrDst(1411)
updateCurrDst(1449)
updateCurrDst(1524)
updateCurrDst(1583)
updateCurrDst(1632)
updateCurrDst(1963)
updateCurrDst(2071)
updateCurrDst(2392)
updateCurrDst(2448)
updateCurrDst(2492)
updateCurrDst(2544)
updateCurrDst(2548)
updateCurrDst(2579)
updateCurrDst(2583)
updateCurrDst(2683)
updateCurrDst(2696)
updateCurrDst(2738)
updateCurrDst(2751)
updateCurrDst(3092)
Heartbeat CPU 0 instructions: 4000003 cycles: 1330799 heartbeat IPC: 3.17876 cumulative IPC: 3.00572 (Simulation time: 0 hr 0 min 14 sec) 
updateCurrDst(3185)
updateCurrDst(3311)
updateCurrDst(3505)
updateCurrDst(3669)
updateCurrDst(3816)
updateCurrDst(3840)
updateCurrDst(3862)
updateCurrDst(4006)
updateCurrDst(4011)
updateCurrDst(4047)
updateCurrDst(4136)
updateCurrDst(4240)
updateCurrDst(4291)
updateCurrDst(4346)
updateCurrDst(4360)
updateCurrDst(4393)
updateCurrDst(4593)
updateCurrDst(4606)
updateCurrDst(4618)
updateCurrDst(4923)
updateCurrDst(5078)
updateCurrDst(5327)
updateCurrDst(5345)
updateCurrDst(5379)
Heartbeat CPU 0 instructions: 5000003 cycles: 1650876 heartbeat IPC: 3.12425 cumulative IPC: 3.0287 (Simulation time: 0 hr 0 min 18 sec) 
updateCurrDst(5503)
updateCurrDst(5510)
updateCurrDst(5625)
updateCurrDst(5784)
updateCurrDst(6008)
updateCurrDst(6203)
updateCurrDst(6234)
updateCurrDst(6284)
updateCurrDst(6294)
updateCurrDst(6335)
updateCurrDst(6393)
updateCurrDst(6739)
updateCurrDst(6805)
updateCurrDst(6941)
updateCurrDst(6957)
updateCurrDst(7084)
updateCurrDst(7166)
updateCurrDst(7170)
updateCurrDst(7405)
updateCurrDst(7444)
updateCurrDst(7468)
Heartbeat CPU 0 instructions: 6000000 cycles: 1970049 heartbeat IPC: 3.13309 cumulative IPC: 3.04561 (Simulation time: 0 hr 0 min 22 sec) 
updateCurrDst(7767)
updateCurrDst(7985)
updateCurrDst(8094)
updateCurrDst(8114)
updateCurrDst(8138)
updateCurrDst(8270)
updateCurrDst(8452)
updateCurrDst(8466)
updateCurrDst(8499)
updateCurrDst(8673)
updateCurrDst(8754)
updateCurrDst(8890)
updateCurrDst(8935)
updateCurrDst(8957)
updateCurrDst(9039)
updateCurrDst(9133)
updateCurrDst(9134)
updateCurrDst(9177)
updateCurrDst(9198)
updateCurrDst(9248)
updateCurrDst(9289)
updateCurrDst(9390)
updateCurrDst(9551)
updateCurrDst(9565)
updateCurrDst(9741)
updateCurrDst(9878)
Heartbeat CPU 0 instructions: 7000000 cycles: 2290698 heartbeat IPC: 3.11867 cumulative IPC: 3.05584 (Simulation time: 0 hr 0 min 26 sec) 
updateCurrDst(10126)
updateCurrDst(10161)
updateCurrDst(10420)
updateCurrDst(10512)
updateCurrDst(10522)
updateCurrDst(10555)
updateCurrDst(10590)
updateCurrDst(10617)
updateCurrDst(10743)
updateCurrDst(10853)
updateCurrDst(10885)
updateCurrDst(10941)
updateCurrDst(11070)
updateCurrDst(11147)
updateCurrDst(11187)
updateCurrDst(11353)
updateCurrDst(11456)
updateCurrDst(11461)
updateCurrDst(11499)
updateCurrDst(11521)
updateCurrDst(11645)
updateCurrDst(11655)
updateCurrDst(11763)
updateCurrDst(11926)
updateCurrDst(12011)
updateCurrDst(12020)
updateCurrDst(12065)
updateCurrDst(12095)
updateCurrDst(12178)
updateCurrDst(12187)
Heartbeat CPU 0 instructions: 8000001 cycles: 2609658 heartbeat IPC: 3.13519 cumulative IPC: 3.06554 (Simulation time: 0 hr 0 min 30 sec) 
updateCurrDst(12515)
updateCurrDst(12536)
updateCurrDst(12596)
updateCurrDst(12655)
updateCurrDst(12686)
updateCurrDst(12897)
updateCurrDst(12960)
updateCurrDst(13036)
updateCurrDst(13056)
updateCurrDst(13113)
updateCurrDst(13246)
updateCurrDst(13447)
updateCurrDst(13522)
updateCurrDst(13541)
updateCurrDst(13606)
updateCurrDst(13968)
updateCurrDst(14150)
Heartbeat CPU 0 instructions: 9000001 cycles: 2926324 heartbeat IPC: 3.1579 cumulative IPC: 3.07553 (Simulation time: 0 hr 0 min 34 sec) 
updateCurrDst(14585)
updateCurrDst(14608)
updateCurrDst(14622)
updateCurrDst(14651)
updateCurrDst(14660)
updateCurrDst(14739)
updateCurrDst(14778)
updateCurrDst(14866)
updateCurrDst(14952)
updateCurrDst(15120)
updateCurrDst(15187)
updateCurrDst(15192)
updateCurrDst(15291)
updateCurrDst(15381)
updateCurrDst(15533)
updateCurrDst(15665)
updateCurrDst(15858)
updateCurrDst(16121)
updateCurrDst(16130)
updateCurrDst(16479)
Heartbeat CPU 0 instructions: 10000001 cycles: 3244724 heartbeat IPC: 3.1407 cumulative IPC: 3.08193 (Simulation time: 0 hr 0 min 38 sec) 
updateCurrDst(16551)
updateCurrDst(16586)
updateCurrDst(16664)
updateCurrDst(16682)
updateCurrDst(16795)
updateCurrDst(17018)
updateCurrDst(17147)
updateCurrDst(17342)
updateCurrDst(17374)
updateCurrDst(17457)
updateCurrDst(17492)
updateCurrDst(17526)
updateCurrDst(17590)
updateCurrDst(17659)
updateCurrDst(17801)
updateCurrDst(17871)
updateCurrDst(17880)
updateCurrDst(17950)
updateCurrDst(17997)
updateCurrDst(18014)
updateCurrDst(18093)
updateCurrDst(18157)
updateCurrDst(18260)
updateCurrDst(18347)
updateCurrDst(18413)
updateCurrDst(18424)
updateCurrDst(18427)
updateCurrDst(18445)
updateCurrDst(18508)
updateCurrDst(18607)
updateCurrDst(18619)
Heartbeat CPU 0 instructions: 11000000 cycles: 3563534 heartbeat IPC: 3.13666 cumulative IPC: 3.08682 (Simulation time: 0 hr 0 min 42 sec) 
updateCurrDst(18744)
updateCurrDst(18825)
updateCurrDst(18910)
updateCurrDst(18924)
updateCurrDst(18945)
updateCurrDst(18985)
updateCurrDst(19064)
updateCurrDst(19268)
updateCurrDst(19391)
updateCurrDst(19501)
updateCurrDst(19576)
updateCurrDst(19820)
updateCurrDst(19903)
updateCurrDst(19963)
updateCurrDst(19976)
updateCurrDst(20047)
updateCurrDst(20049)
updateCurrDst(20083)
updateCurrDst(20258)
updateCurrDst(20270)
updateCurrDst(20285)
updateCurrDst(20369)
Heartbeat CPU 0 instructions: 12000001 cycles: 3874491 heartbeat IPC: 3.21588 cumulative IPC: 3.09718 (Simulation time: 0 hr 0 min 46 sec) 
updateCurrDst(20452)
updateCurrDst(20556)
updateCurrDst(20824)
updateCurrDst(20930)
updateCurrDst(21550)
updateCurrDst(21598)
updateCurrDst(21734)
updateCurrDst(21745)
updateCurrDst(21758)
updateCurrDst(21797)
updateCurrDst(21835)
updateCurrDst(21889)
updateCurrDst(21945)
updateCurrDst(22088)
updateCurrDst(22155)
updateCurrDst(22190)
updateCurrDst(22199)
updateCurrDst(22229)
updateCurrDst(22242)
updateCurrDst(22300)
updateCurrDst(22353)
updateCurrDst(22371)
updateCurrDst(22522)
Heartbeat CPU 0 instructions: 13000000 cycles: 4191736 heartbeat IPC: 3.15213 cumulative IPC: 3.10134 (Simulation time: 0 hr 0 min 51 sec) 
updateCurrDst(22579)
updateCurrDst(22648)
updateCurrDst(22729)
updateCurrDst(22750)
updateCurrDst(22823)
updateCurrDst(22868)
updateCurrDst(22885)
updateCurrDst(22936)
updateCurrDst(22948)
updateCurrDst(23018)
updateCurrDst(23157)
updateCurrDst(23251)
updateCurrDst(23256)
updateCurrDst(23358)
updateCurrDst(23435)
updateCurrDst(23464)
updateCurrDst(23526)
updateCurrDst(23549)
updateCurrDst(23592)
updateCurrDst(23751)
updateCurrDst(23777)
updateCurrDst(23785)
updateCurrDst(23839)
updateCurrDst(23914)
updateCurrDst(24000)
updateCurrDst(24165)
updateCurrDst(24210)
updateCurrDst(24233)
updateCurrDst(24527)
updateCurrDst(24566)
Heartbeat CPU 0 instructions: 14000003 cycles: 4508868 heartbeat IPC: 3.15327 cumulative IPC: 3.10499 (Simulation time: 0 hr 0 min 56 sec) 
updateCurrDst(24683)
updateCurrDst(24881)
updateCurrDst(25029)
updateCurrDst(25099)
updateCurrDst(25124)
updateCurrDst(25129)
updateCurrDst(25228)
updateCurrDst(25315)
updateCurrDst(25391)
updateCurrDst(25560)
updateCurrDst(25657)
updateCurrDst(25710)
updateCurrDst(25877)
updateCurrDst(25946)
updateCurrDst(25991)
updateCurrDst(25997)
updateCurrDst(26067)
updateCurrDst(26210)
updateCurrDst(26265)
updateCurrDst(26537)
updateCurrDst(26590)
Heartbeat CPU 0 instructions: 15000002 cycles: 4826421 heartbeat IPC: 3.14908 cumulative IPC: 3.10789 (Simulation time: 0 hr 1 min 2 sec) 
updateCurrDst(26960)
updateCurrDst(27017)
updateCurrDst(27031)
updateCurrDst(27052)
updateCurrDst(27065)
updateCurrDst(27068)
updateCurrDst(27258)
updateCurrDst(27272)
updateCurrDst(27375)
updateCurrDst(27430)
updateCurrDst(27580)
updateCurrDst(27710)
updateCurrDst(27719)
updateCurrDst(27935)
updateCurrDst(28110)
updateCurrDst(28195)
updateCurrDst(28363)
updateCurrDst(28373)
updateCurrDst(28388)
updateCurrDst(28392)
updateCurrDst(28430)
updateCurrDst(28540)
updateCurrDst(28644)
updateCurrDst(28814)
updateCurrDst(28815)
Heartbeat CPU 0 instructions: 16000000 cycles: 5142253 heartbeat IPC: 3.16623 cumulative IPC: 3.11148 (Simulation time: 0 hr 1 min 6 sec) 

Warmup complete CPU 0 instructions: 16000004 cycles: 5142254 (Simulation time: 0 hr 1 min 6 sec) 

updateCurrDst(28856)
updateCurrDst(28989)
updateCurrDst(29075)
updateCurrDst(29094)
updateCurrDst(29114)
updateCurrDst(29186)
updateCurrDst(29261)
updateCurrDst(29327)
updateCurrDst(29338)
updateCurrDst(29408)
updateCurrDst(29512)
updateCurrDst(29610)
updateCurrDst(29637)
updateCurrDst(29773)
updateCurrDst(29810)
updateCurrDst(29873)
updateCurrDst(29932)
updateCurrDst(29962)
updateCurrDst(30178)
updateCurrDst(30427)
updateCurrDst(30491)
updateCurrDst(30496)
updateCurrDst(30556)
updateCurrDst(30776)
updateCurrDst(30778)
updateCurrDst(30801)
updateCurrDst(30891)
updateCurrDst(31065)
updateCurrDst(31077)
Heartbeat CPU 0 instructions: 17000000 cycles: 8123076 heartbeat IPC: 0.335478 cumulative IPC: 0.335477 (Simulation time: 0 hr 1 min 10 sec) 
updateCurrDst(31126)
updateCurrDst(31144)
updateCurrDst(31160)
updateCurrDst(31161)
updateCurrDst(31233)
updateCurrDst(31354)
updateCurrDst(31362)
updateCurrDst(31566)
updateCurrDst(31611)
updateCurrDst(31646)
updateCurrDst(31689)
updateCurrDst(31783)
updateCurrDst(31971)
updateCurrDst(32034)
updateCurrDst(32037)
updateCurrDst(32105)
updateCurrDst(32403)
updateCurrDst(32426)
updateCurrDst(32666)
updateCurrDst(32689)
updateCurrDst(32749)
updateCurrDst(32825)
updateCurrDst(32918)
updateCurrDst(33051)
Heartbeat CPU 0 instructions: 18000000 cycles: 11136983 heartbeat IPC: 0.331795 cumulative IPC: 0.333626 (Simulation time: 0 hr 1 min 14 sec) 
updateCurrDst(33099)
updateCurrDst(33122)
updateCurrDst(33159)
updateCurrDst(33209)
updateCurrDst(33217)
updateCurrDst(33227)
updateCurrDst(33370)
updateCurrDst(33462)
updateCurrDst(33496)
updateCurrDst(33676)
updateCurrDst(33997)
updateCurrDst(34083)
updateCurrDst(34116)
updateCurrDst(34181)
updateCurrDst(34230)
updateCurrDst(34236)
updateCurrDst(34325)
updateCurrDst(34399)
updateCurrDst(34421)
updateCurrDst(34470)
updateCurrDst(34538)
updateCurrDst(34539)
updateCurrDst(34549)
updateCurrDst(34558)
updateCurrDst(34633)
updateCurrDst(34724)
updateCurrDst(34805)
updateCurrDst(34823)
updateCurrDst(34841)
updateCurrDst(34902)
updateCurrDst(34937)
updateCurrDst(34993)
updateCurrDst(35028)
updateCurrDst(35035)
updateCurrDst(35057)
updateCurrDst(35090)
updateCurrDst(35111)
Heartbeat CPU 0 instructions: 19000000 cycles: 14158125 heartbeat IPC: 0.331001 cumulative IPC: 0.332746 (Simulation time: 0 hr 1 min 19 sec) 
updateCurrDst(35385)
updateCurrDst(35420)
updateCurrDst(35421)
updateCurrDst(35505)
updateCurrDst(35535)
updateCurrDst(35633)
updateCurrDst(35693)
updateCurrDst(35879)
updateCurrDst(35912)
updateCurrDst(35930)
updateCurrDst(35994)
updateCurrDst(36021)
updateCurrDst(36073)
updateCurrDst(36088)
updateCurrDst(36150)
updateCurrDst(36176)
updateCurrDst(36272)
updateCurrDst(36288)
updateCurrDst(36293)
updateCurrDst(36341)
updateCurrDst(36377)
updateCurrDst(36560)
updateCurrDst(36642)
updateCurrDst(36682)
updateCurrDst(36699)
updateCurrDst(36872)
updateCurrDst(36886)
updateCurrDst(37066)
updateCurrDst(37088)
updateCurrDst(37195)
updateCurrDst(37323)
Heartbeat CPU 0 instructions: 20000001 cycles: 17198125 heartbeat IPC: 0.328948 cumulative IPC: 0.331788 (Simulation time: 0 hr 1 min 24 sec) 
updateCurrDst(37399)
updateCurrDst(37604)
updateCurrDst(37817)
updateCurrDst(37908)
updateCurrDst(38091)
updateCurrDst(38181)
updateCurrDst(38189)
updateCurrDst(38309)
updateCurrDst(38323)
updateCurrDst(38494)
updateCurrDst(38606)
updateCurrDst(38609)
updateCurrDst(38886)
updateCurrDst(38892)
updateCurrDst(38920)
updateCurrDst(38980)
updateCurrDst(39048)
updateCurrDst(39049)
updateCurrDst(39136)
updateCurrDst(39189)
Heartbeat CPU 0 instructions: 21000002 cycles: 20250720 heartbeat IPC: 0.32759 cumulative IPC: 0.33094 (Simulation time: 0 hr 1 min 28 sec) 
updateCurrDst(39430)
updateCurrDst(39567)
updateCurrDst(39597)
updateCurrDst(39754)
updateCurrDst(39818)
updateCurrDst(39867)
updateCurrDst(40014)
updateCurrDst(40017)
updateCurrDst(40101)
updateCurrDst(40141)
updateCurrDst(40152)
updateCurrDst(40501)
updateCurrDst(41336)
updateCurrDst(41360)
updateCurrDst(41368)
updateCurrDst(41444)
Heartbeat CPU 0 instructions: 22000000 cycles: 23295845 heartbeat IPC: 0.328393 cumulative IPC: 0.330513 (Simulation time: 0 hr 1 min 33 sec) 
updateCurrDst(41549)
updateCurrDst(41631)
updateCurrDst(41661)
updateCurrDst(41777)
updateCurrDst(41800)
updateCurrDst(41851)
updateCurrDst(41984)
updateCurrDst(42012)
updateCurrDst(42017)
updateCurrDst(42026)
updateCurrDst(42063)
updateCurrDst(42206)
updateCurrDst(42218)
updateCurrDst(42474)
updateCurrDst(42583)
updateCurrDst(42749)
updateCurrDst(42765)
updateCurrDst(42782)
updateCurrDst(43128)
updateCurrDst(43314)
updateCurrDst(43417)
updateCurrDst(43501)
updateCurrDst(43520)
updateCurrDst(43600)
updateCurrDst(43608)
Heartbeat CPU 0 instructions: 23000001 cycles: 26339268 heartbeat IPC: 0.328578 cumulative IPC: 0.330235 (Simulation time: 0 hr 1 min 37 sec) 
updateCurrDst(43687)
updateCurrDst(43737)
updateCurrDst(43786)
updateCurrDst(43849)
updateCurrDst(43924)
updateCurrDst(43942)
updateCurrDst(43947)
updateCurrDst(44012)
updateCurrDst(44081)
updateCurrDst(44148)
updateCurrDst(44149)
updateCurrDst(44168)
updateCurrDst(44380)
updateCurrDst(44438)
updateCurrDst(44441)
updateCurrDst(44678)
updateCurrDst(44715)
updateCurrDst(44843)
updateCurrDst(44915)
updateCurrDst(44923)
updateCurrDst(44997)
updateCurrDst(45012)
updateCurrDst(45097)
updateCurrDst(45143)
updateCurrDst(45472)
updateCurrDst(45508)
updateCurrDst(45590)
updateCurrDst(45596)
Heartbeat CPU 0 instructions: 24000001 cycles: 29375392 heartbeat IPC: 0.329367 cumulative IPC: 0.330126 (Simulation time: 0 hr 1 min 44 sec) 
updateCurrDst(45791)
updateCurrDst(45920)
updateCurrDst(45970)
updateCurrDst(46042)
updateCurrDst(46259)
updateCurrDst(46671)
updateCurrDst(46966)
updateCurrDst(47145)
updateCurrDst(47152)
updateCurrDst(47289)
updateCurrDst(47290)
updateCurrDst(47315)
updateCurrDst(47405)
updateCurrDst(47573)
updateCurrDst(47603)
updateCurrDst(47622)
updateCurrDst(47666)
updateCurrDst(47679)
updateCurrDst(47710)
updateCurrDst(47774)
Heartbeat CPU 0 instructions: 25000002 cycles: 32420207 heartbeat IPC: 0.328427 cumulative IPC: 0.329937 (Simulation time: 0 hr 1 min 48 sec) 
updateCurrDst(48010)
updateCurrDst(48110)
updateCurrDst(48219)
updateCurrDst(48364)
updateCurrDst(48735)
updateCurrDst(49164)
updateCurrDst(49194)
updateCurrDst(49270)
updateCurrDst(49340)
updateCurrDst(49452)
updateCurrDst(49489)
updateCurrDst(49682)
updateCurrDst(49691)
updateCurrDst(49751)
updateCurrDst(49897)
updateCurrDst(50114)
updateCurrDst(50216)
Heartbeat CPU 0 instructions: 26000000 cycles: 35452803 heartbeat IPC: 0.32975 cumulative IPC: 0.329918 (Simulation time: 0 hr 1 min 53 sec) 
updateCurrDst(50318)
updateCurrDst(50459)
updateCurrDst(50498)
updateCurrDst(50634)
updateCurrDst(50732)
updateCurrDst(50919)
updateCurrDst(51068)
updateCurrDst(51150)
updateCurrDst(51413)
updateCurrDst(51548)
updateCurrDst(51659)
updateCurrDst(51669)
updateCurrDst(51714)
updateCurrDst(52108)
updateCurrDst(52145)
updateCurrDst(52277)
updateCurrDst(52355)
Heartbeat CPU 0 instructions: 27000000 cycles: 38495295 heartbeat IPC: 0.328678 cumulative IPC: 0.329805 (Simulation time: 0 hr 1 min 58 sec) 
updateCurrDst(52516)
updateCurrDst(52773)
updateCurrDst(53097)
updateCurrDst(53195)
updateCurrDst(53215)
updateCurrDst(53380)
updateCurrDst(53485)
updateCurrDst(53520)
updateCurrDst(53557)
updateCurrDst(53800)
updateCurrDst(53806)
updateCurrDst(53990)
updateCurrDst(54001)
updateCurrDst(54056)
updateCurrDst(54122)
updateCurrDst(54182)
updateCurrDst(54224)
Heartbeat CPU 0 instructions: 28000001 cycles: 41546341 heartbeat IPC: 0.327757 cumulative IPC: 0.329633 (Simulation time: 0 hr 2 min 3 sec) 
updateCurrDst(54390)
updateCurrDst(54546)
updateCurrDst(54610)
updateCurrDst(54624)
updateCurrDst(54704)
updateCurrDst(54734)
updateCurrDst(54785)
updateCurrDst(54865)
updateCurrDst(54914)
updateCurrDst(55117)
updateCurrDst(55177)
updateCurrDst(55182)
updateCurrDst(55265)
updateCurrDst(55420)
updateCurrDst(55438)
updateCurrDst(55466)
updateCurrDst(55795)
updateCurrDst(55894)
updateCurrDst(55911)
updateCurrDst(55988)
updateCurrDst(56058)
updateCurrDst(56059)
updateCurrDst(56219)
updateCurrDst(56487)
updateCurrDst(56488)
updateCurrDst(56517)
Heartbeat CPU 0 instructions: 29000000 cycles: 44595298 heartbeat IPC: 0.327981 cumulative IPC: 0.329506 (Simulation time: 0 hr 2 min 7 sec) 
updateCurrDst(56658)
updateCurrDst(56676)
updateCurrDst(56684)
updateCurrDst(56701)
updateCurrDst(56710)
updateCurrDst(56775)
updateCurrDst(56781)
updateCurrDst(56788)
updateCurrDst(56814)
updateCurrDst(56890)
updateCurrDst(57148)
updateCurrDst(57170)
updateCurrDst(57259)
updateCurrDst(57392)
updateCurrDst(57618)
updateCurrDst(57639)
updateCurrDst(57759)
updateCurrDst(57762)
updateCurrDst(57850)
updateCurrDst(57912)
updateCurrDst(57985)
updateCurrDst(58102)
updateCurrDst(58414)
updateCurrDst(58454)
updateCurrDst(58609)
Heartbeat CPU 0 instructions: 30000000 cycles: 47646678 heartbeat IPC: 0.327721 cumulative IPC: 0.329377 (Simulation time: 0 hr 2 min 11 sec) 
updateCurrDst(59036)
updateCurrDst(59153)
updateCurrDst(59247)
updateCurrDst(59467)
updateCurrDst(59743)
updateCurrDst(59747)
updateCurrDst(59834)
updateCurrDst(59850)
updateCurrDst(59893)
updateCurrDst(59965)
updateCurrDst(60135)
updateCurrDst(60215)
updateCurrDst(60231)
updateCurrDst(60599)
updateCurrDst(60600)
updateCurrDst(60647)
updateCurrDst(60659)
updateCurrDst(60886)
Heartbeat CPU 0 instructions: 31000000 cycles: 50688828 heartbeat IPC: 0.328715 cumulative IPC: 0.329333 (Simulation time: 0 hr 2 min 19 sec) 
updateCurrDst(60988)
updateCurrDst(61169)
updateCurrDst(61285)
updateCurrDst(61310)
updateCurrDst(61397)
updateCurrDst(61398)
updateCurrDst(61451)
updateCurrDst(61485)
updateCurrDst(61489)
updateCurrDst(61787)
updateCurrDst(61900)
updateCurrDst(61932)
updateCurrDst(62087)
updateCurrDst(62112)
updateCurrDst(62132)
updateCurrDst(62176)
updateCurrDst(62193)
updateCurrDst(62235)
updateCurrDst(62289)
updateCurrDst(62388)
updateCurrDst(62567)
updateCurrDst(62575)
updateCurrDst(62791)
updateCurrDst(62803)
updateCurrDst(63049)
updateCurrDst(63145)
updateCurrDst(63174)
updateCurrDst(63215)
*** Reached end of trace for Core: 0 Repeating trace: tracer/pull_g16_k3.xzafter: 32000000
Heartbeat CPU 0 instructions: 32000001 cycles: 53723552 heartbeat IPC: 0.32952 cumulative IPC: 0.329345 (Simulation time: 0 hr 2 min 25 sec) 
Finished CPU 0 instructions: 16000001 cycles: 48581299 cumulative IPC: 0.329345 (Simulation time: 0 hr 2 min 25 sec) 

ChampSim completed all CPUs

Region of Interest Statistics

CPU 0 cumulative IPC: 0.329345 instructions: 16000001 cycles: 48581299

Total ROB STALLS:                    6534363
STLB MISS ROB STALLS:                    190
L1D  LOAD MISS ROB STALLS:            145437  Translation MISS ROB STALLS:             0
L2C  LOAD MISS ROB STALLS:             19919  Translation MISS ROB STALLS:             0
LLC  LOAD MISS ROB STALLS:             16601  Translation MISS ROB STALLS:             0

ITLB TOTAL     ACCESS:           2181512  HIT:    2181512  MISS:          0  HIT %:        100  MISS %:          0   MPKI: 0
ITLB LOAD TRANSLATION ACCESS:    2181512  HIT:    2181512  MISS:          0  HIT %:        100  MISS %:          0   MPKI: 0
ITLB AVERAGE MISS LATENCY:          -nan cycles
ITLB RQ ACCESS:     2388056	FORWARD:           0	MERGED:       206545	TO_CACHE:    2181511

DTLB TOTAL     ACCESS:           4773296  HIT:    4758547  MISS:      14749  HIT %:     99.691  MISS %:    0.30899   MPKI: 0.921812
DTLB LOAD TRANSLATION ACCESS:    4773296  HIT:    4758547  MISS:      14749  HIT %:     99.691  MISS %:    0.30899   MPKI: 0.921812
DTLB AVERAGE MISS LATENCY:       12.2334 cycles
DTLB RQ ACCESS:     6476293	FORWARD:           0	MERGED:      1702996	TO_CACHE:    4773297

STLB TOTAL     ACCESS:             14749  HIT:      14559  MISS:        190  HIT %:    98.7118  MISS %:    1.28822   MPKI: 0.011875
STLB LOAD TRANSLATION ACCESS:      14749  HIT:      14559  MISS:        190  HIT %:    98.7118  MISS %:    1.28822   MPKI: 0.011875
STLB AVERAGE MISS LATENCY:           251 cycles
STLB RQ ACCESS:       14749	FORWARD:           0	MERGED:            0	TO_CACHE:      14749

PSCL5 TOTAL     ACCESS:               190  HIT:        190  MISS:          0  HIT %:        100  MISS %:          0   MPKI: 0
PSCL5 LOAD TRANSLATION ACCESS:        190  HIT:        190  MISS:          0  HIT %:        100  MISS %:          0   MPKI: 0

PSCL4 TOTAL     ACCESS:               190  HIT:        190  MISS:          0  HIT %:        100  MISS %:          0   MPKI: 0
PSCL4 LOAD TRANSLATION ACCESS:        190  HIT:        190  MISS:          0  HIT %:        100  MISS %:          0   MPKI: 0

PSCL3 TOTAL     ACCESS:               190  HIT:        190  MISS:          0  HIT %:        100  MISS %:          0   MPKI: 0
PSCL3 LOAD TRANSLATION ACCESS:        190  HIT:        190  MISS:          0  HIT %:        100  MISS %:          0   MPKI: 0

PSCL2 TOTAL     ACCESS:               190  HIT:        190  MISS:          0  HIT %:        100  MISS %:          0   MPKI: 0
PSCL2 LOAD TRANSLATION ACCESS:        190  HIT:        190  MISS:          0  HIT %:        100  MISS %:          0   MPKI: 0

L1D TOTAL     ACCESS:           6476228  HIT:    6330758  MISS:     145470  HIT %:    97.7538  MISS %:    2.24621   MPKI: 9.09187  USED:      50365  UNUSED:      95105
L1D LOAD      ACCESS:           2786540  HIT:    2641097  MISS:     145443  HIT %:    94.7805  MISS %:    5.21948   MPKI: 9.09019  USED:      50338  UNUSED:      95105
L1D RFO       ACCESS:           3689688  HIT:    3689661  MISS:         27  HIT %:    99.9993  MISS %: 0.000731769   MPKI: 0.0016875
L1D PTL1 TRANSLATION ACCESS:          0  HIT:          0  MISS:          0  HIT %:       -nan  MISS %:       -nan   MPKI: 0
L1D PTL2 TRANSLATION ACCESS:          0  HIT:          0  MISS:          0  HIT %:       -nan  MISS %:       -nan   MPKI: 0
L1D PTL3 TRANSLATION ACCESS:          0  HIT:          0  MISS:          0  HIT %:       -nan  MISS %:       -nan   MPKI: 0
L1D PTL4 TRANSLATION ACCESS:          0  HIT:          0  MISS:          0  HIT %:       -nan  MISS %:       -nan   MPKI: 0
L1D PTL5 TRANSLATION ACCESS:          0  HIT:          0  MISS:          0  HIT %:       -nan  MISS %:       -nan   MPKI: 0
L1D TOTAL EVICTIONS:             145470  TRANSLATION EVICTIONS:          0  TRANSLATION EVICTING TRANSALTION:          0  TRANSLATION EVICTING LOAD:          0  LOAD EVICTING TRANSALTION:          0  LOAD EVICTING LOAD:      145416
L1D AVERAGE MISS LATENCY:       34.5051 cycles  AVERAGE LOAD MISS LATENCY:       34.5087 cycles  AVERAGE LOAD TRANSLATION MISS LATENCY:          -nan cycles
L1D RQ ACCESS:     4073067	FORWARD:           0	MERGED:       854795	TO_CACHE:    2786540
L1D WQ ACCESS:     3693204	FORWARD:      431732	MERGED:         3451	TO_CACHE:    3689753

L1I TOTAL     ACCESS:           2388057  HIT:    2388057  MISS:          0  HIT %:        100  MISS %:          0   MPKI: 0
L1I LOAD      ACCESS:           2388057  HIT:    2388057  MISS:          0  HIT %:        100  MISS %:          0   MPKI: 0
L1I AVERAGE MISS LATENCY:          -nan cycles
L1I RQ ACCESS:     3768387	FORWARD:           0	MERGED:      1380331	TO_CACHE:    2388056

L2C TOTAL     ACCESS:            147651  HIT:     127724  MISS:      19927  HIT %:     86.504  MISS %:     13.496   MPKI: 1.24544  USED:       1131  UNUSED:      18796
L2C LOAD      ACCESS:            145443  HIT:     125522  MISS:      19921  HIT %:    86.3032  MISS %:    13.6968   MPKI: 1.24506  USED:        926  UNUSED:      18796
L2C RFO       ACCESS:                27  HIT:         27  MISS:          0  HIT %:        100  MISS %:          0   MPKI: 0
L2C WRITEBACK ACCESS:              2181  HIT:       2175  MISS:          6  HIT %:    99.7249  MISS %:   0.275103   MPKI: 0.000375
L2C PTL1 TRANSLATION ACCESS:          0  HIT:          0  MISS:          0  HIT %:       -nan  MISS %:       -nan   MPKI: 0
L2C PTL2 TRANSLATION ACCESS:          0  HIT:          0  MISS:          0  HIT %:       -nan  MISS %:       -nan   MPKI: 0
L2C PTL3 TRANSLATION ACCESS:          0  HIT:          0  MISS:          0  HIT %:       -nan  MISS %:       -nan   MPKI: 0
L2C PTL4 TRANSLATION ACCESS:          0  HIT:          0  MISS:          0  HIT %:       -nan  MISS %:       -nan   MPKI: 0
L2C PTL5 TRANSLATION ACCESS:          0  HIT:          0  MISS:          0  HIT %:       -nan  MISS %:       -nan   MPKI: 0
L2C TOTAL EVICTIONS:              19927  TRANSLATION EVICTIONS:          0  TRANSLATION EVICTING TRANSALTION:          0  TRANSLATION EVICTING LOAD:          0  LOAD EVICTING TRANSALTION:          0  LOAD EVICTING LOAD:       19716
L2C AVERAGE MISS LATENCY:        142.39 cycles  AVERAGE LOAD MISS LATENCY:       142.433 cycles  AVERAGE LOAD TRANSLATION MISS LATENCY:          -nan cycles
L2C RQ ACCESS:      145470	FORWARD:           0	MERGED:            0	TO_CACHE:     145470
L2C WQ ACCESS:        2181	FORWARD:           0	MERGED:            0	TO_CACHE:       2181

LLC TOTAL     ACCESS:             22268  HIT:       5610  MISS:      16658  HIT %:    25.1931  MISS %:    74.8069   MPKI: 1.04112  USED:        967  UNUSED:      15035
LLC LOAD      ACCESS:             19921  HIT:       3320  MISS:      16601  HIT %:    16.6658  MISS %:    83.3342   MPKI: 1.03756  USED:          3  UNUSED:       9249
LLC WRITEBACK ACCESS:              2347  HIT:       2290  MISS:         57  HIT %:    97.5714  MISS %:    2.42863   MPKI: 0.0035625
LLC PTL1 TRANSLATION ACCESS:          0  HIT:          0  MISS:          0  HIT %:       -nan  MISS %:       -nan   MPKI: 0
LLC PTL2 TRANSLATION ACCESS:          0  HIT:          0  MISS:          0  HIT %:       -nan  MISS %:       -nan   MPKI: 0
LLC PTL3 TRANSLATION ACCESS:          0  HIT:          0  MISS:          0  HIT %:       -nan  MISS %:       -nan   MPKI: 0
LLC PTL4 TRANSLATION ACCESS:          0  HIT:          0  MISS:          0  HIT %:       -nan  MISS %:       -nan   MPKI: 0
LLC PTL5 TRANSLATION ACCESS:          0  HIT:          0  MISS:          0  HIT %:       -nan  MISS %:       -nan   MPKI: 0
LLC TOTAL EVICTIONS:              16002  TRANSLATION EVICTIONS:          0  TRANSLATION EVICTING TRANSALTION:          0  TRANSLATION EVICTING LOAD:          0  LOAD EVICTING TRANSALTION:          0  LOAD EVICTING LOAD:        9217
LLC AVERAGE MISS LATENCY:       134.456 cycles  AVERAGE LOAD MISS LATENCY:       134.918 cycles  AVERAGE LOAD TRANSLATION MISS LATENCY:          -nan cycles
LLC RQ ACCESS:       19921	FORWARD:           0	MERGED:            0	TO_CACHE:      19921
LLC WQ ACCESS:        2347	FORWARD:           0	MERGED:            0	TO_CACHE:       2347


RAW hits: 2705324
Loads Generated: 6778391
Loads sent to L1D: 4073067
Stores Generated: 3693202
Stores sent to L1D: 3693204
Major fault: 0 Minor fault: 830
Allocated PAGES: 830
IRREG DATA L1D ACCESS: 361361
L2C ACCESSES: 236555
L2C MISSES: 3302

DRAM Statistics
 CHANNEL 0
 RQ ROW_BUFFER_HIT:       5824  ROW_BUFFER_MISS:      10967
 DBUS_CONGESTED:          0
 WQ ROW_BUFFER_HIT:          3  ROW_BUFFER_MISS:       5521  FULL:          0

 AVG_CONGESTED_CYCLE: -

CPU 0 Branch Prediction Accuracy: 98.3335% MPKI: 2.04269 Average ROB Occupancy at Mispredict: 13.1367
Branch types
NOT_BRANCH: 14038398 87.74%
BRANCH_DIRECT_JUMP: 0 0%
BRANCH_INDIRECT: 229337 1.43336%
BRANCH_CONDITIONAL: 0 0%
BRANCH_DIRECT_CALL: 34424 0.21515%
BRANCH_INDIRECT_CALL: 665216 4.1576%
BRANCH_RETURN: 699642 4.37276%
BRANCH_OTHER: 332608 2.0788%

DRAM PAGES: 1048576
Allocated PAGES: 830
