
*** ChampSim Multicore Out-of-Order Simulator ***

Warmup Instructions: 16000000
Simulation Instructions: 16000000
Number of CPUs: 1
LLC sets: 2048
LLC ways: 16
Off-chip DRAM Size: 4096 MB Channels: 1 Width: 64-bit Data Rate: 6400 MT/s
CPU 0 runs tracer/pull_g16_k3.xz
.xz
BTB has LRU replacement policy
ITLB has LRU replacement policy
DTLB has LRU replacement policy
STLB has LRU replacement policy
L1I has LRU replacement policy
L1D has LRU replacement policy
L2C has LRU replacement policy
Initialize DRRIP state for LLC
Heartbeat CPU 0 instructions: 1000002 cycles: 350514 heartbeat IPC: 2.85296 cumulative IPC: 2.85296 (Simulation time: 0 hr 0 min 4 sec) 
PIN_registerGraphs(test_g16_k3.sg,1)
Graphh Number of Nodes: 65535
Heartbeat CPU 0 instructions: 2000001 cycles: 690802 heartbeat IPC: 2.93868 cumulative IPC: 2.89519 (Simulation time: 0 hr 0 min 6 sec) 
PIN_updateRegBaseBound( 94047396556944, 94047396819084)
updateCurrDst(89)
updateCurrDst(111)
updateCurrDst(487)
updateCurrDst(503)
updateCurrDst(543)
updateCurrDst(893)
updateCurrDst(1151)
Heartbeat CPU 0 instructions: 3000001 cycles: 1016210 heartbeat IPC: 3.07307 cumulative IPC: 2.95215 (Simulation time: 0 hr 0 min 9 sec) 
updateCurrDst(1311)
updateCurrDst(1366)
updateCurrDst(1369)
updateCurrDst(1417)
updateCurrDst(1440)
updateCurrDst(1487)
updateCurrDst(1543)
updateCurrDst(1560)
updateCurrDst(1563)
updateCurrDst(1859)
updateCurrDst(2138)
updateCurrDst(2437)
updateCurrDst(2450)
updateCurrDst(2505)
updateCurrDst(2516)
updateCurrDst(2657)
updateCurrDst(2749)
updateCurrDst(2938)
updateCurrDst(2984)
updateCurrDst(3096)
Heartbeat CPU 0 instructions: 4000003 cycles: 1330799 heartbeat IPC: 3.17876 cumulative IPC: 3.00572 (Simulation time: 0 hr 0 min 13 sec) 
updateCurrDst(3295)
updateCurrDst(3502)
updateCurrDst(3688)
updateCurrDst(3874)
updateCurrDst(4082)
updateCurrDst(4145)
updateCurrDst(4180)
updateCurrDst(4320)
updateCurrDst(4486)
updateCurrDst(4529)
updateCurrDst(4718)
updateCurrDst(4749)
updateCurrDst(4855)
updateCurrDst(4893)
updateCurrDst(5154)
updateCurrDst(5182)
updateCurrDst(5203)
updateCurrDst(5295)
updateCurrDst(5300)
updateCurrDst(5400)
Heartbeat CPU 0 instructions: 5000003 cycles: 1650876 heartbeat IPC: 3.12425 cumulative IPC: 3.0287 (Simulation time: 0 hr 0 min 17 sec) 
updateCurrDst(5609)
updateCurrDst(5807)
updateCurrDst(6040)
updateCurrDst(6169)
updateCurrDst(6456)
updateCurrDst(6476)
updateCurrDst(6563)
updateCurrDst(6913)
updateCurrDst(7099)
updateCurrDst(7102)
updateCurrDst(7132)
updateCurrDst(7194)
Heartbeat CPU 0 instructions: 6000000 cycles: 1970049 heartbeat IPC: 3.13309 cumulative IPC: 3.04561 (Simulation time: 0 hr 0 min 21 sec) 
updateCurrDst(7703)
updateCurrDst(7924)
updateCurrDst(8137)
updateCurrDst(8146)
updateCurrDst(8167)
updateCurrDst(8177)
updateCurrDst(8249)
updateCurrDst(8266)
updateCurrDst(8347)
updateCurrDst(8428)
updateCurrDst(8605)
updateCurrDst(8765)
updateCurrDst(9071)
updateCurrDst(9103)
updateCurrDst(9241)
updateCurrDst(9435)
updateCurrDst(9441)
updateCurrDst(9520)
updateCurrDst(9543)
updateCurrDst(9693)
updateCurrDst(9743)
updateCurrDst(9747)
updateCurrDst(10010)
Heartbeat CPU 0 instructions: 7000000 cycles: 2290698 heartbeat IPC: 3.11867 cumulative IPC: 3.05584 (Simulation time: 0 hr 0 min 24 sec) 
updateCurrDst(10086)
updateCurrDst(10219)
updateCurrDst(10276)
updateCurrDst(10297)
updateCurrDst(10514)
updateCurrDst(10543)
updateCurrDst(10548)
updateCurrDst(10608)
updateCurrDst(10690)
updateCurrDst(10724)
updateCurrDst(10759)
updateCurrDst(10792)
updateCurrDst(11308)
updateCurrDst(11415)
updateCurrDst(11477)
updateCurrDst(11595)
updateCurrDst(11639)
updateCurrDst(11650)
updateCurrDst(11736)
updateCurrDst(11738)
updateCurrDst(11746)
updateCurrDst(11839)
updateCurrDst(12046)
updateCurrDst(12195)
Heartbeat CPU 0 instructions: 8000001 cycles: 2609658 heartbeat IPC: 3.13519 cumulative IPC: 3.06554 (Simulation time: 0 hr 0 min 28 sec) 
updateCurrDst(12375)
updateCurrDst(12592)
updateCurrDst(12853)
updateCurrDst(12877)
updateCurrDst(12958)
updateCurrDst(12983)
updateCurrDst(13327)
updateCurrDst(13348)
updateCurrDst(13389)
updateCurrDst(13429)
updateCurrDst(13684)
updateCurrDst(13768)
updateCurrDst(13806)
updateCurrDst(13873)
updateCurrDst(13904)
updateCurrDst(13942)
updateCurrDst(14013)
updateCurrDst(14142)
updateCurrDst(14169)
updateCurrDst(14191)
updateCurrDst(14304)
Heartbeat CPU 0 instructions: 9000001 cycles: 2926324 heartbeat IPC: 3.1579 cumulative IPC: 3.07553 (Simulation time: 0 hr 0 min 32 sec) 
updateCurrDst(14545)
updateCurrDst(14567)
updateCurrDst(14732)
updateCurrDst(14907)
updateCurrDst(14929)
updateCurrDst(15082)
updateCurrDst(15157)
updateCurrDst(15175)
updateCurrDst(15192)
updateCurrDst(15325)
updateCurrDst(15338)
updateCurrDst(15444)
updateCurrDst(15551)
updateCurrDst(15596)
updateCurrDst(15711)
updateCurrDst(15763)
updateCurrDst(15782)
updateCurrDst(15844)
updateCurrDst(15904)
updateCurrDst(15917)
updateCurrDst(16058)
updateCurrDst(16135)
updateCurrDst(16398)
updateCurrDst(16483)
Heartbeat CPU 0 instructions: 10000001 cycles: 3244724 heartbeat IPC: 3.1407 cumulative IPC: 3.08193 (Simulation time: 0 hr 0 min 36 sec) 
updateCurrDst(16647)
updateCurrDst(16827)
updateCurrDst(16912)
updateCurrDst(17038)
updateCurrDst(17042)
updateCurrDst(17068)
updateCurrDst(17101)
updateCurrDst(17154)
updateCurrDst(17187)
updateCurrDst(17233)
updateCurrDst(17256)
updateCurrDst(17303)
updateCurrDst(17403)
updateCurrDst(17670)
updateCurrDst(17683)
updateCurrDst(17823)
updateCurrDst(17827)
updateCurrDst(17899)
updateCurrDst(17972)
updateCurrDst(18005)
updateCurrDst(18120)
updateCurrDst(18286)
updateCurrDst(18366)
updateCurrDst(18424)
updateCurrDst(18494)
updateCurrDst(18500)
updateCurrDst(18586)
updateCurrDst(18611)
updateCurrDst(18665)
Heartbeat CPU 0 instructions: 11000000 cycles: 3563534 heartbeat IPC: 3.13666 cumulative IPC: 3.08682 (Simulation time: 0 hr 0 min 40 sec) 
updateCurrDst(18753)
updateCurrDst(18757)
updateCurrDst(18789)
updateCurrDst(19037)
updateCurrDst(19078)
updateCurrDst(19102)
updateCurrDst(19274)
updateCurrDst(19515)
updateCurrDst(19753)
updateCurrDst(19819)
updateCurrDst(19823)
updateCurrDst(20083)
updateCurrDst(20110)
updateCurrDst(20222)
Heartbeat CPU 0 instructions: 12000001 cycles: 3874491 heartbeat IPC: 3.21588 cumulative IPC: 3.09718 (Simulation time: 0 hr 0 min 43 sec) 
updateCurrDst(20463)
updateCurrDst(20513)
updateCurrDst(20584)
updateCurrDst(20623)
updateCurrDst(20641)
updateCurrDst(20809)
updateCurrDst(20861)
updateCurrDst(21055)
updateCurrDst(21098)
updateCurrDst(21248)
updateCurrDst(21292)
updateCurrDst(21389)
updateCurrDst(21953)
updateCurrDst(22023)
updateCurrDst(22025)
updateCurrDst(22061)
updateCurrDst(22102)
updateCurrDst(22256)
updateCurrDst(22297)
updateCurrDst(22313)
updateCurrDst(22321)
updateCurrDst(22380)
updateCurrDst(22444)
Heartbeat CPU 0 instructions: 13000000 cycles: 4191736 heartbeat IPC: 3.15213 cumulative IPC: 3.10134 (Simulation time: 0 hr 0 min 47 sec) 
updateCurrDst(22575)
updateCurrDst(22804)
updateCurrDst(22908)
updateCurrDst(23037)
updateCurrDst(23162)
updateCurrDst(23375)
updateCurrDst(23455)
updateCurrDst(23527)
updateCurrDst(23562)
updateCurrDst(23711)
updateCurrDst(23713)
updateCurrDst(23854)
updateCurrDst(23957)
updateCurrDst(24003)
updateCurrDst(24008)
updateCurrDst(24056)
updateCurrDst(24308)
updateCurrDst(24361)
updateCurrDst(24385)
updateCurrDst(24388)
updateCurrDst(24443)
updateCurrDst(24599)
Heartbeat CPU 0 instructions: 14000003 cycles: 4508868 heartbeat IPC: 3.15327 cumulative IPC: 3.10499 (Simulation time: 0 hr 0 min 51 sec) 
updateCurrDst(24767)
updateCurrDst(24797)
updateCurrDst(24907)
updateCurrDst(24971)
updateCurrDst(25170)
updateCurrDst(25270)
updateCurrDst(25859)
updateCurrDst(25968)
Heartbeat CPU 0 instructions: 15000002 cycles: 4826423 heartbeat IPC: 3.14906 cumulative IPC: 3.10789 (Simulation time: 0 hr 0 min 55 sec) 
updateCurrDst(27029)
updateCurrDst(27030)
updateCurrDst(27084)
updateCurrDst(27140)
updateCurrDst(27167)
updateCurrDst(27221)
updateCurrDst(27273)
updateCurrDst(27335)
updateCurrDst(27524)
updateCurrDst(27550)
updateCurrDst(27769)
updateCurrDst(27830)
updateCurrDst(27839)
updateCurrDst(27869)
updateCurrDst(27896)
updateCurrDst(27900)
updateCurrDst(27912)
updateCurrDst(28049)
updateCurrDst(28124)
updateCurrDst(28330)
updateCurrDst(28352)
updateCurrDst(28365)
updateCurrDst(28398)
updateCurrDst(28544)
updateCurrDst(28551)
updateCurrDst(28702)
updateCurrDst(28715)
updateCurrDst(28803)
Heartbeat CPU 0 instructions: 16000000 cycles: 5142255 heartbeat IPC: 3.16623 cumulative IPC: 3.11148 (Simulation time: 0 hr 0 min 58 sec) 

Warmup complete CPU 0 instructions: 16000004 cycles: 5142256 (Simulation time: 0 hr 0 min 58 sec) 

updateCurrDst(28937)
updateCurrDst(28972)
updateCurrDst(29083)
updateCurrDst(29122)
updateCurrDst(29210)
updateCurrDst(29377)
updateCurrDst(29478)
updateCurrDst(29485)
updateCurrDst(29563)
updateCurrDst(29590)
updateCurrDst(29654)
updateCurrDst(29768)
updateCurrDst(29894)
updateCurrDst(30352)
updateCurrDst(30381)
updateCurrDst(30386)
updateCurrDst(30597)
updateCurrDst(30642)
updateCurrDst(30682)
updateCurrDst(30825)
updateCurrDst(30953)
updateCurrDst(31007)
updateCurrDst(31039)
updateCurrDst(31046)
updateCurrDst(31071)
Heartbeat CPU 0 instructions: 17000000 cycles: 8122478 heartbeat IPC: 0.335545 cumulative IPC: 0.335544 (Simulation time: 0 hr 1 min 3 sec) 
updateCurrDst(31131)
updateCurrDst(31239)
updateCurrDst(31527)
updateCurrDst(31648)
updateCurrDst(31759)
updateCurrDst(31767)
updateCurrDst(31917)
updateCurrDst(31988)
updateCurrDst(32032)
updateCurrDst(32084)
updateCurrDst(32108)
updateCurrDst(32145)
updateCurrDst(32221)
updateCurrDst(32276)
updateCurrDst(32461)
updateCurrDst(32562)
updateCurrDst(32630)
updateCurrDst(32634)
updateCurrDst(32701)
updateCurrDst(32858)
updateCurrDst(32882)
updateCurrDst(32967)
updateCurrDst(33054)
Heartbeat CPU 0 instructions: 18000000 cycles: 11135873 heartbeat IPC: 0.331852 cumulative IPC: 0.333688 (Simulation time: 0 hr 1 min 7 sec) 
updateCurrDst(33152)
updateCurrDst(33253)
updateCurrDst(33453)
updateCurrDst(33455)
updateCurrDst(33538)
updateCurrDst(33584)
updateCurrDst(33645)
updateCurrDst(33778)
updateCurrDst(33959)
updateCurrDst(34162)
updateCurrDst(34289)
updateCurrDst(34409)
updateCurrDst(34525)
updateCurrDst(34842)
updateCurrDst(34901)
updateCurrDst(34911)
updateCurrDst(35139)
Heartbeat CPU 0 instructions: 19000000 cycles: 14155591 heartbeat IPC: 0.331157 cumulative IPC: 0.33284 (Simulation time: 0 hr 1 min 11 sec) 
updateCurrDst(35472)
updateCurrDst(35596)
updateCurrDst(35604)
updateCurrDst(35746)
updateCurrDst(35936)
updateCurrDst(36160)
updateCurrDst(36226)
updateCurrDst(36299)
updateCurrDst(36368)
updateCurrDst(36396)
updateCurrDst(36881)
updateCurrDst(36958)
updateCurrDst(36994)
updateCurrDst(37016)
updateCurrDst(37021)
updateCurrDst(37235)
Heartbeat CPU 0 instructions: 20000001 cycles: 17194711 heartbeat IPC: 0.329043 cumulative IPC: 0.331882 (Simulation time: 0 hr 1 min 15 sec) 
updateCurrDst(37505)
updateCurrDst(37841)
updateCurrDst(37853)
updateCurrDst(37859)
updateCurrDst(37866)
updateCurrDst(37876)
updateCurrDst(37919)
updateCurrDst(38154)
updateCurrDst(38291)
updateCurrDst(38437)
updateCurrDst(38443)
updateCurrDst(38455)
updateCurrDst(38466)
updateCurrDst(38683)
updateCurrDst(38770)
updateCurrDst(38956)
updateCurrDst(38989)
updateCurrDst(39046)
updateCurrDst(39104)
updateCurrDst(39229)
updateCurrDst(39258)
updateCurrDst(39263)
updateCurrDst(39337)
Heartbeat CPU 0 instructions: 21000002 cycles: 20245970 heartbeat IPC: 0.327734 cumulative IPC: 0.331044 (Simulation time: 0 hr 1 min 19 sec) 
updateCurrDst(39403)
updateCurrDst(39459)
updateCurrDst(39493)
updateCurrDst(39577)
updateCurrDst(39593)
updateCurrDst(39670)
updateCurrDst(39771)
updateCurrDst(39980)
updateCurrDst(40048)
updateCurrDst(40069)
updateCurrDst(40084)
updateCurrDst(40319)
updateCurrDst(40345)
updateCurrDst(40355)
updateCurrDst(40357)
updateCurrDst(40500)
updateCurrDst(40949)
updateCurrDst(40979)
updateCurrDst(40996)
updateCurrDst(41046)
updateCurrDst(41217)
updateCurrDst(41299)
updateCurrDst(41342)
updateCurrDst(41386)
Heartbeat CPU 0 instructions: 22000000 cycles: 23289471 heartbeat IPC: 0.328568 cumulative IPC: 0.330629 (Simulation time: 0 hr 1 min 23 sec) 
updateCurrDst(41485)
updateCurrDst(41500)
updateCurrDst(41665)
updateCurrDst(41804)
updateCurrDst(41844)
updateCurrDst(41897)
updateCurrDst(41962)
updateCurrDst(42099)
updateCurrDst(42131)
updateCurrDst(42207)
updateCurrDst(42270)
updateCurrDst(42279)
updateCurrDst(42404)
updateCurrDst(42553)
updateCurrDst(42574)
updateCurrDst(42602)
updateCurrDst(42723)
updateCurrDst(42988)
updateCurrDst(43014)
updateCurrDst(43289)
updateCurrDst(43358)
updateCurrDst(43526)
updateCurrDst(43528)
Heartbeat CPU 0 instructions: 23000001 cycles: 26331545 heartbeat IPC: 0.328723 cumulative IPC: 0.330355 (Simulation time: 0 hr 1 min 27 sec) 
updateCurrDst(43652)
updateCurrDst(44123)
updateCurrDst(44157)
updateCurrDst(44207)
updateCurrDst(44334)
updateCurrDst(44404)
updateCurrDst(44430)
updateCurrDst(44434)
updateCurrDst(44522)
updateCurrDst(44609)
updateCurrDst(44627)
updateCurrDst(44649)
updateCurrDst(44750)
updateCurrDst(44753)
updateCurrDst(44836)
updateCurrDst(44943)
updateCurrDst(45002)
updateCurrDst(45025)
updateCurrDst(45158)
updateCurrDst(45430)
updateCurrDst(45567)
updateCurrDst(45571)
Heartbeat CPU 0 instructions: 24000001 cycles: 29367209 heartbeat IPC: 0.329417 cumulative IPC: 0.330238 (Simulation time: 0 hr 1 min 31 sec) 
updateCurrDst(45750)
updateCurrDst(45819)
updateCurrDst(45897)
updateCurrDst(45914)
updateCurrDst(46158)
updateCurrDst(46167)
updateCurrDst(46325)
updateCurrDst(46370)
updateCurrDst(46435)
updateCurrDst(46465)
updateCurrDst(46538)
updateCurrDst(46576)
updateCurrDst(46642)
updateCurrDst(46713)
updateCurrDst(46781)
updateCurrDst(46802)
updateCurrDst(46817)
updateCurrDst(46882)
updateCurrDst(46911)
updateCurrDst(47000)
updateCurrDst(47026)
updateCurrDst(47071)
updateCurrDst(47274)
updateCurrDst(47329)
updateCurrDst(47439)
updateCurrDst(47475)
updateCurrDst(47561)
updateCurrDst(47667)
updateCurrDst(47721)
updateCurrDst(47829)
updateCurrDst(47885)
Heartbeat CPU 0 instructions: 25000002 cycles: 32412749 heartbeat IPC: 0.328349 cumulative IPC: 0.330027 (Simulation time: 0 hr 1 min 35 sec) 
updateCurrDst(47986)
updateCurrDst(48000)
updateCurrDst(48082)
updateCurrDst(48088)
updateCurrDst(48096)
updateCurrDst(48140)
updateCurrDst(48183)
updateCurrDst(48192)
updateCurrDst(48240)
updateCurrDst(48307)
updateCurrDst(48398)
updateCurrDst(48410)
updateCurrDst(48614)
updateCurrDst(48642)
updateCurrDst(48821)
updateCurrDst(48897)
updateCurrDst(49092)
updateCurrDst(49107)
updateCurrDst(49116)
updateCurrDst(49181)
updateCurrDst(49378)
updateCurrDst(49381)
updateCurrDst(49809)
updateCurrDst(49857)
updateCurrDst(49883)
updateCurrDst(49894)
updateCurrDst(49978)
updateCurrDst(50060)
Heartbeat CPU 0 instructions: 26000000 cycles: 35436889 heartbeat IPC: 0.330672 cumulative IPC: 0.330091 (Simulation time: 0 hr 1 min 39 sec) 
updateCurrDst(50299)
updateCurrDst(50386)
updateCurrDst(50886)
updateCurrDst(50977)
updateCurrDst(51054)
updateCurrDst(51107)
updateCurrDst(51243)
updateCurrDst(51245)
updateCurrDst(51355)
updateCurrDst(51359)
updateCurrDst(51454)
updateCurrDst(51545)
updateCurrDst(51555)
updateCurrDst(51558)
updateCurrDst(51729)
updateCurrDst(51784)
updateCurrDst(51802)
updateCurrDst(51965)
updateCurrDst(51974)
updateCurrDst(51980)
updateCurrDst(52292)
updateCurrDst(52300)
updateCurrDst(52309)
updateCurrDst(52351)
Heartbeat CPU 0 instructions: 27000000 cycles: 38465996 heartbeat IPC: 0.33013 cumulative IPC: 0.330095 (Simulation time: 0 hr 1 min 44 sec) 
updateCurrDst(52668)
updateCurrDst(52849)
updateCurrDst(53039)
updateCurrDst(53198)
updateCurrDst(53215)
updateCurrDst(53394)
updateCurrDst(53432)
updateCurrDst(53482)
updateCurrDst(53527)
updateCurrDst(53756)
updateCurrDst(53907)
updateCurrDst(53917)
Heartbeat CPU 0 instructions: 28000001 cycles: 41508678 heartbeat IPC: 0.328658 cumulative IPC: 0.329975 (Simulation time: 0 hr 1 min 48 sec) 
updateCurrDst(54396)
updateCurrDst(54432)
updateCurrDst(54537)
updateCurrDst(54827)
updateCurrDst(54951)
updateCurrDst(54961)
updateCurrDst(55006)
updateCurrDst(55067)
updateCurrDst(55101)
updateCurrDst(55251)
updateCurrDst(55317)
updateCurrDst(55754)
updateCurrDst(55772)
updateCurrDst(55879)
updateCurrDst(55933)
updateCurrDst(56011)
updateCurrDst(56031)
updateCurrDst(56113)
updateCurrDst(56348)
updateCurrDst(56415)
updateCurrDst(56494)
updateCurrDst(56555)
Heartbeat CPU 0 instructions: 29000000 cycles: 44547791 heartbeat IPC: 0.329043 cumulative IPC: 0.329903 (Simulation time: 0 hr 1 min 52 sec) 
updateCurrDst(56611)
updateCurrDst(56785)
updateCurrDst(56914)
updateCurrDst(57309)
updateCurrDst(57331)
updateCurrDst(57511)
updateCurrDst(57595)
updateCurrDst(57790)
updateCurrDst(57826)
updateCurrDst(57874)
updateCurrDst(57926)
updateCurrDst(57992)
updateCurrDst(58053)
updateCurrDst(58104)
updateCurrDst(58385)
updateCurrDst(58470)
updateCurrDst(58501)
updateCurrDst(58610)
updateCurrDst(58670)
Heartbeat CPU 0 instructions: 30000000 cycles: 47584703 heartbeat IPC: 0.329282 cumulative IPC: 0.329858 (Simulation time: 0 hr 1 min 56 sec) 
updateCurrDst(59040)
updateCurrDst(59234)
updateCurrDst(59256)
updateCurrDst(59265)
updateCurrDst(59309)
updateCurrDst(59459)
updateCurrDst(59520)
updateCurrDst(59615)
updateCurrDst(60095)
updateCurrDst(60153)
updateCurrDst(60174)
updateCurrDst(60238)
updateCurrDst(60396)
updateCurrDst(60525)
updateCurrDst(60632)
updateCurrDst(60796)
updateCurrDst(60877)
updateCurrDst(60923)
updateCurrDst(60930)
Heartbeat CPU 0 instructions: 31000000 cycles: 50621407 heartbeat IPC: 0.329304 cumulative IPC: 0.329821 (Simulation time: 0 hr 2 min 0 sec) 
updateCurrDst(60967)
updateCurrDst(61146)
updateCurrDst(61228)
updateCurrDst(61265)
updateCurrDst(61539)
updateCurrDst(61562)
updateCurrDst(61642)
updateCurrDst(62038)
updateCurrDst(62100)
updateCurrDst(62200)
updateCurrDst(62368)
updateCurrDst(62399)
updateCurrDst(62560)
updateCurrDst(62602)
updateCurrDst(62698)
updateCurrDst(62826)
updateCurrDst(62836)
updateCurrDst(62934)
updateCurrDst(62970)
updateCurrDst(63042)
updateCurrDst(63057)
updateCurrDst(63224)
*** Reached end of trace for Core: 0 Repeating trace: tracer/pull_g16_k3.xzafter: 32000000
Heartbeat CPU 0 instructions: 32000001 cycles: 53655602 heartbeat IPC: 0.329577 cumulative IPC: 0.329806 (Simulation time: 0 hr 2 min 4 sec) 
Finished CPU 0 instructions: 16000001 cycles: 48513347 cumulative IPC: 0.329806 (Simulation time: 0 hr 2 min 4 sec) 

ChampSim completed all CPUs

Region of Interest Statistics

CPU 0 cumulative IPC: 0.329806 instructions: 16000001 cycles: 48513347

Total ROB STALLS:                    6534723
STLB MISS ROB STALLS:                    190
L1D  LOAD MISS ROB STALLS:            145437  Translation MISS ROB STALLS:             0
L2C  LOAD MISS ROB STALLS:             19919  Translation MISS ROB STALLS:             0
LLC  LOAD MISS ROB STALLS:             16298  Translation MISS ROB STALLS:             0

ITLB TOTAL     ACCESS:           2181512  HIT:    2181512  MISS:          0  HIT %:        100  MISS %:          0   MPKI: 0
ITLB LOAD TRANSLATION ACCESS:    2181512  HIT:    2181512  MISS:          0  HIT %:        100  MISS %:          0   MPKI: 0
ITLB AVERAGE MISS LATENCY:          -nan cycles
ITLB RQ ACCESS:     2388056	FORWARD:           0	MERGED:       206545	TO_CACHE:    2181511

DTLB TOTAL     ACCESS:           4773296  HIT:    4758547  MISS:      14749  HIT %:     99.691  MISS %:    0.30899   MPKI: 0.921812
DTLB LOAD TRANSLATION ACCESS:    4773296  HIT:    4758547  MISS:      14749  HIT %:     99.691  MISS %:    0.30899   MPKI: 0.921812
DTLB AVERAGE MISS LATENCY:       12.2334 cycles
DTLB RQ ACCESS:     6476364	FORWARD:           0	MERGED:      1703067	TO_CACHE:    4773297

STLB TOTAL     ACCESS:             14749  HIT:      14559  MISS:        190  HIT %:    98.7118  MISS %:    1.28822   MPKI: 0.011875
STLB LOAD TRANSLATION ACCESS:      14749  HIT:      14559  MISS:        190  HIT %:    98.7118  MISS %:    1.28822   MPKI: 0.011875
STLB AVERAGE MISS LATENCY:           251 cycles
STLB RQ ACCESS:       14749	FORWARD:           0	MERGED:            0	TO_CACHE:      14749

PSCL5 TOTAL     ACCESS:               190  HIT:        190  MISS:          0  HIT %:        100  MISS %:          0   MPKI: 0
PSCL5 LOAD TRANSLATION ACCESS:        190  HIT:        190  MISS:          0  HIT %:        100  MISS %:          0   MPKI: 0

PSCL4 TOTAL     ACCESS:               190  HIT:        190  MISS:          0  HIT %:        100  MISS %:          0   MPKI: 0
PSCL4 LOAD TRANSLATION ACCESS:        190  HIT:        190  MISS:          0  HIT %:        100  MISS %:          0   MPKI: 0

PSCL3 TOTAL     ACCESS:               190  HIT:        190  MISS:          0  HIT %:        100  MISS %:          0   MPKI: 0
PSCL3 LOAD TRANSLATION ACCESS:        190  HIT:        190  MISS:          0  HIT %:        100  MISS %:          0   MPKI: 0

PSCL2 TOTAL     ACCESS:               190  HIT:        190  MISS:          0  HIT %:        100  MISS %:          0   MPKI: 0
PSCL2 LOAD TRANSLATION ACCESS:        190  HIT:        190  MISS:          0  HIT %:        100  MISS %:          0   MPKI: 0

L1D TOTAL     ACCESS:           6476299  HIT:    6330829  MISS:     145470  HIT %:    97.7538  MISS %:    2.24619   MPKI: 9.09187  USED:      50365  UNUSED:      95105
L1D LOAD      ACCESS:           2786540  HIT:    2641097  MISS:     145443  HIT %:    94.7805  MISS %:    5.21948   MPKI: 9.09019  USED:      50338  UNUSED:      95105
L1D RFO       ACCESS:           3689759  HIT:    3689732  MISS:         27  HIT %:    99.9993  MISS %: 0.000731755   MPKI: 0.0016875
L1D PTL1 TRANSLATION ACCESS:          0  HIT:          0  MISS:          0  HIT %:       -nan  MISS %:       -nan   MPKI: 0
L1D PTL2 TRANSLATION ACCESS:          0  HIT:          0  MISS:          0  HIT %:       -nan  MISS %:       -nan   MPKI: 0
L1D PTL3 TRANSLATION ACCESS:          0  HIT:          0  MISS:          0  HIT %:       -nan  MISS %:       -nan   MPKI: 0
L1D PTL4 TRANSLATION ACCESS:          0  HIT:          0  MISS:          0  HIT %:       -nan  MISS %:       -nan   MPKI: 0
L1D PTL5 TRANSLATION ACCESS:          0  HIT:          0  MISS:          0  HIT %:       -nan  MISS %:       -nan   MPKI: 0
L1D TOTAL EVICTIONS:             145470  TRANSLATION EVICTIONS:          0  TRANSLATION EVICTING TRANSALTION:          0  TRANSLATION EVICTING LOAD:          0  LOAD EVICTING TRANSALTION:          0  LOAD EVICTING LOAD:      145416
L1D AVERAGE MISS LATENCY:       34.0307 cycles  AVERAGE LOAD MISS LATENCY:       34.0342 cycles  AVERAGE LOAD TRANSLATION MISS LATENCY:          -nan cycles
L1D RQ ACCESS:     4073067	FORWARD:           0	MERGED:       854795	TO_CACHE:    2786540
L1D WQ ACCESS:     3693204	FORWARD:      431732	MERGED:         3380	TO_CACHE:    3689824

L1I TOTAL     ACCESS:           2388057  HIT:    2388057  MISS:          0  HIT %:        100  MISS %:          0   MPKI: 0
L1I LOAD      ACCESS:           2388057  HIT:    2388057  MISS:          0  HIT %:        100  MISS %:          0   MPKI: 0
L1I AVERAGE MISS LATENCY:          -nan cycles
L1I RQ ACCESS:     3768387	FORWARD:           0	MERGED:      1380331	TO_CACHE:    2388056

L2C TOTAL     ACCESS:            147651  HIT:     127724  MISS:      19927  HIT %:     86.504  MISS %:     13.496   MPKI: 1.24544  USED:       1131  UNUSED:      18796
L2C LOAD      ACCESS:            145443  HIT:     125522  MISS:      19921  HIT %:    86.3032  MISS %:    13.6968   MPKI: 1.24506  USED:        926  UNUSED:      18796
L2C RFO       ACCESS:                27  HIT:         27  MISS:          0  HIT %:        100  MISS %:          0   MPKI: 0
L2C WRITEBACK ACCESS:              2181  HIT:       2175  MISS:          6  HIT %:    99.7249  MISS %:   0.275103   MPKI: 0.000375
L2C PTL1 TRANSLATION ACCESS:          0  HIT:          0  MISS:          0  HIT %:       -nan  MISS %:       -nan   MPKI: 0
L2C PTL2 TRANSLATION ACCESS:          0  HIT:          0  MISS:          0  HIT %:       -nan  MISS %:       -nan   MPKI: 0
L2C PTL3 TRANSLATION ACCESS:          0  HIT:          0  MISS:          0  HIT %:       -nan  MISS %:       -nan   MPKI: 0
L2C PTL4 TRANSLATION ACCESS:          0  HIT:          0  MISS:          0  HIT %:       -nan  MISS %:       -nan   MPKI: 0
L2C PTL5 TRANSLATION ACCESS:          0  HIT:          0  MISS:          0  HIT %:       -nan  MISS %:       -nan   MPKI: 0
L2C TOTAL EVICTIONS:              19927  TRANSLATION EVICTIONS:          0  TRANSLATION EVICTING TRANSALTION:          0  TRANSLATION EVICTING LOAD:          0  LOAD EVICTING TRANSALTION:          0  LOAD EVICTING LOAD:       19716
L2C AVERAGE MISS LATENCY:       138.927 cycles  AVERAGE LOAD MISS LATENCY:       138.968 cycles  AVERAGE LOAD TRANSLATION MISS LATENCY:          -nan cycles
L2C RQ ACCESS:      145470	FORWARD:           0	MERGED:            0	TO_CACHE:     145470
L2C WQ ACCESS:        2181	FORWARD:           0	MERGED:            0	TO_CACHE:       2181

LLC TOTAL     ACCESS:             22268  HIT:       5912  MISS:      16356  HIT %:    26.5493  MISS %:    73.4507   MPKI: 1.02225  USED:          0  UNUSED:          0
LLC LOAD      ACCESS:             19921  HIT:       3623  MISS:      16298  HIT %:    18.1868  MISS %:    81.8132   MPKI: 1.01862  USED:          0  UNUSED:          0
LLC WRITEBACK ACCESS:              2347  HIT:       2289  MISS:         58  HIT %:    97.5288  MISS %:    2.47124   MPKI: 0.003625
LLC PTL1 TRANSLATION ACCESS:          0  HIT:          0  MISS:          0  HIT %:       -nan  MISS %:       -nan   MPKI: 0
LLC PTL2 TRANSLATION ACCESS:          0  HIT:          0  MISS:          0  HIT %:       -nan  MISS %:       -nan   MPKI: 0
LLC PTL3 TRANSLATION ACCESS:          0  HIT:          0  MISS:          0  HIT %:       -nan  MISS %:       -nan   MPKI: 0
LLC PTL4 TRANSLATION ACCESS:          0  HIT:          0  MISS:          0  HIT %:       -nan  MISS %:       -nan   MPKI: 0
LLC PTL5 TRANSLATION ACCESS:          0  HIT:          0  MISS:          0  HIT %:       -nan  MISS %:       -nan   MPKI: 0
LLC TOTAL EVICTIONS:                  0  TRANSLATION EVICTIONS:          0  TRANSLATION EVICTING TRANSALTION:          0  TRANSLATION EVICTING LOAD:          0  LOAD EVICTING TRANSALTION:          0  LOAD EVICTING LOAD:           0
LLC AVERAGE MISS LATENCY:       132.719 cycles  AVERAGE LOAD MISS LATENCY:       133.192 cycles  AVERAGE LOAD TRANSLATION MISS LATENCY:          -nan cycles
LLC RQ ACCESS:       19921	FORWARD:           0	MERGED:            0	TO_CACHE:      19921
LLC WQ ACCESS:        2347	FORWARD:           0	MERGED:            0	TO_CACHE:       2347


RAW hits: 2705324
Loads Generated: 6778391
Loads sent to L1D: 4073067
Stores Generated: 3693202
Stores sent to L1D: 3693204
Major fault: 0 Minor fault: 830
Allocated PAGES: 830
IRREG DATA L1D ACCESS: 361361
L2C ACCESSES: 236555
L2C MISSES: 3302

DRAM Statistics
 CHANNEL 0
 RQ ROW_BUFFER_HIT:       5999  ROW_BUFFER_MISS:      10489
 DBUS_CONGESTED:          0
 WQ ROW_BUFFER_HIT:          0  ROW_BUFFER_MISS:       5200  FULL:          0

 AVG_CONGESTED_CYCLE: -

CPU 0 Branch Prediction Accuracy: 98.3335% MPKI: 2.04269 Average ROB Occupancy at Mispredict: 13.1367
Branch types
NOT_BRANCH: 14038398 87.74%
BRANCH_DIRECT_JUMP: 0 0%
BRANCH_INDIRECT: 229337 1.43336%
BRANCH_CONDITIONAL: 0 0%
BRANCH_DIRECT_CALL: 34424 0.21515%
BRANCH_INDIRECT_CALL: 665216 4.1576%
BRANCH_RETURN: 699642 4.37276%
BRANCH_OTHER: 332608 2.0788%

DRAM PAGES: 1048576
Allocated PAGES: 830
